Version 4
SHEET 1 6068 1612
WIRE 400 -1408 384 -1408
WIRE 640 -1408 624 -1408
WIRE 640 -1328 640 -1408
WIRE 640 -1328 624 -1328
FLAG 720 -1408 0
FLAG 384 -1408 0
FLAG 320 -1328 0
FLAG 704 -1488 0
FLAG 320 -1488 0
SYMBOL voltage 624 -1408 R270
WINDOW 123 0 0 Left 2
WINDOW 39 0 0 Left 2
WINDOW 0 24 16 Invisible 2
WINDOW 3 24 96 Invisible 2
SYMATTR InstName V2
SYMATTR Value 5
SYMBOL Misc\\EuropeanResistor 304 -1344 M90
WINDOW 0 5 56 Invisible 2
WINDOW 3 27 56 VTop 2
SYMATTR InstName R9
SYMATTR Value 100k
SYMBOL Misc\\EuropeanResistor 608 -1472 R270
WINDOW 0 27 56 Invisible 2
WINDOW 3 5 56 VBottom 2
SYMATTR InstName R1
SYMATTR Value 10k
SYMBOL voltage 416 -1488 R90
WINDOW 123 0 0 Left 2
WINDOW 39 0 0 Left 2
WINDOW 0 24 16 Invisible 2
WINDOW 3 -32 81 Left 2
SYMATTR InstName V4
SYMATTR Value SINE(.5 .3 10000)
SYMBOL SpecialFunctions\\LTC6992-1 512 -1408 R0
SYMATTR InstName U1
TEXT 648 -1336 Left 2 !.tran 4m uic
