Version 4
SHEET 1 6068 1612
WIRE -320 -1616 -368 -1616
WIRE -192 -1616 -208 -1616
WIRE -96 -1616 -112 -1616
WIRE -80 -1616 -96 -1616
WIRE -208 -1584 -208 -1616
WIRE -320 -1568 -320 -1616
WIRE 512 -1536 352 -1536
WIRE 608 -1536 592 -1536
WIRE 720 -1536 608 -1536
WIRE 752 -1536 720 -1536
WIRE 0 -1520 0 -1616
WIRE 80 -1520 0 -1520
WIRE 176 -1520 160 -1520
WIRE 192 -1520 176 -1520
WIRE 608 -1520 608 -1536
WIRE 720 -1520 720 -1536
WIRE -96 -1504 -96 -1616
WIRE -80 -1504 -96 -1504
WIRE 752 -1504 752 -1536
WIRE 800 -1504 752 -1504
WIRE 0 -1488 0 -1520
WIRE 0 -1488 -16 -1488
WIRE -320 -1472 -320 -1488
WIRE -80 -1472 -320 -1472
WIRE -320 -1456 -320 -1472
WIRE 176 -1456 176 -1520
WIRE 192 -1456 176 -1456
WIRE 272 -1440 272 -1520
WIRE 272 -1440 256 -1440
WIRE 352 -1440 352 -1536
WIRE 352 -1440 272 -1440
WIRE 720 -1440 720 -1456
WIRE 192 -1424 160 -1424
WIRE 800 -1424 784 -1424
WIRE 1040 -1424 1024 -1424
WIRE 160 -1408 160 -1424
WIRE -320 -1360 -320 -1376
WIRE 1040 -1344 1040 -1424
WIRE 1040 -1344 1024 -1344
WIRE -160 -1312 -160 -1344
WIRE -160 -1232 -208 -1232
WIRE -208 -1200 -208 -1232
WIRE -144 -1152 -160 -1152
FLAG 1120 -1424 0
FLAG 784 -1424 0
FLAG 720 -1344 0
FLAG 1104 -1504 0
FLAG -208 -1200 0
FLAG -144 -1152 -op
IOPIN -144 -1152 BiDir
FLAG -208 -1504 0
FLAG -320 -1360 0
FLAG -48 -1456 -op
IOPIN -48 -1456 BiDir
FLAG -48 -1520 +
IOPIN -48 -1520 BiDir
FLAG -448 -1616 0
FLAG -160 -1344 +
IOPIN -160 -1344 BiDir
FLAG 720 -1440 0
FLAG 608 -1440 0
FLAG 224 -1408 -op
IOPIN 224 -1408 BiDir
FLAG 224 -1472 +
IOPIN 224 -1472 BiDir
FLAG 160 -1408 0
SYMBOL voltage 1024 -1424 R270
WINDOW 123 0 0 Left 2
WINDOW 39 0 0 Left 2
WINDOW 0 24 16 Invisible 2
WINDOW 3 24 96 Invisible 2
SYMATTR InstName V2
SYMATTR Value 5
SYMBOL Misc\\EuropeanResistor 704 -1360 M90
WINDOW 0 5 56 Invisible 2
WINDOW 3 27 56 VTop 2
SYMATTR InstName R9
SYMATTR Value 100k
SYMBOL Misc\\EuropeanResistor 1008 -1488 R270
WINDOW 0 27 56 Invisible 2
WINDOW 3 5 56 VBottom 2
SYMATTR InstName R1
SYMATTR Value 10k
SYMBOL SpecialFunctions\\LTC6992-1 912 -1424 R0
SYMATTR InstName U1
SYMBOL voltage -160 -1248 R0
WINDOW 0 24 16 Invisible 2
WINDOW 3 -10 56 Left 2
SYMATTR InstName V3
SYMATTR Value 15
SYMATTR SpiceLine Rser=0
SYMBOL voltage -208 -1600 R0
WINDOW 0 24 16 Invisible 2
WINDOW 3 -10 56 Left 2
WINDOW 123 0 0 Left 2
SYMATTR InstName V5
SYMATTR Value 2.5
SYMATTR SpiceLine Rser=0
SYMBOL Misc\\EuropeanResistor -336 -1472 M180
WINDOW 0 31 76 Left 2
WINDOW 3 31 40 Left 2
SYMATTR InstName R3
SYMATTR Value 7.95Meg
SYMBOL Misc\\EuropeanResistor -304 -1472 M0
SYMATTR InstName R4
SYMATTR Value 50k
SYMBOL Opamps\\opamp2 -48 -1552 R0
WINDOW 3 -32 63 Left 2
WINDOW 0 16 32 Invisible 2
SYMATTR Value lm318
SYMATTR InstName U2
SYMBOL Misc\\EuropeanResistor 16 -1600 M270
WINDOW 0 27 56 Invisible 2
WINDOW 3 5 56 VBottom 2
SYMATTR InstName R5
SYMATTR Value 100k
SYMBOL Misc\\EuropeanResistor -96 -1600 M270
WINDOW 0 27 56 Invisible 2
WINDOW 3 5 56 VBottom 2
SYMATTR InstName R6
SYMATTR Value 50
SYMBOL voltage -352 -1616 R90
WINDOW 123 0 0 Left 2
WINDOW 39 0 0 Left 2
WINDOW 0 24 16 Invisible 2
WINDOW 3 -32 81 Left 2
SYMATTR InstName V6
SYMATTR Value SINE(401.3 2 10000)
SYMBOL voltage -160 -1328 R0
WINDOW 0 -32 56 VBottom 2
WINDOW 3 32 56 VTop 2
WINDOW 123 0 0 Left 2
SYMATTR InstName V7
SYMATTR Value 15
SYMATTR SpiceLine Rser=0
SYMBOL Misc\\EuropeanResistor 608 -1520 M270
WINDOW 0 27 56 VTop 2
WINDOW 3 5 56 VBottom 2
SYMATTR InstName R2
SYMATTR Value 1k
SYMBOL Misc\\EuropeanResistor 624 -1536 M0
SYMATTR InstName R8
SYMATTR Value 1k
SYMBOL schottky 736 -1456 R180
WINDOW 0 24 64 Left 2
WINDOW 3 24 0 Left 2
SYMATTR InstName D1
SYMATTR Value 1N5819
SYMATTR Description Diode
SYMATTR Type diode
SYMBOL Opamps\\opamp2 224 -1504 R0
WINDOW 3 -32 63 Left 2
WINDOW 0 16 32 Invisible 2
SYMATTR Value lm318
SYMATTR InstName U4
SYMBOL Misc\\EuropeanResistor 288 -1504 M270
WINDOW 0 27 56 VTop 2
WINDOW 3 5 56 VBottom 2
SYMATTR InstName R11
SYMATTR Value 1k
SYMBOL Misc\\EuropeanResistor 176 -1504 M270
WINDOW 0 27 56 VTop 2
WINDOW 3 5 56 VBottom 2
SYMATTR InstName R12
SYMATTR Value 6k
TEXT 1048 -1352 Left 2 !.tran 4m uic
TEXT 848 -1592 Left 2 !.lib LM318.sub
TEXT 848 -1624 Left 2 !.lib CD4066.sub
TEXT 848 -1576 Left 2 !.inc CD4000.lib
TEXT 848 -1560 Left 2 !.inc cd4066.sub
TEXT 848 -1608 Left 2 !.lib NE5532.sub
