Version 4
SHEET 1 6068 1612
WIRE 1984 -2400 1872 -2400
WIRE 2176 -2384 2160 -2384
WIRE 1872 -2368 1872 -2400
WIRE 1984 -2368 1984 -2400
WIRE 2160 -2368 2160 -2384
WIRE 2160 -2272 2160 -2288
WIRE 2208 -2272 2160 -2272
WIRE 1872 -2256 1872 -2288
WIRE 1984 -2256 1984 -2288
WIRE 1984 -2256 1872 -2256
WIRE 2160 -2256 2160 -2272
WIRE 2208 -2256 2208 -2272
WIRE 736 -2208 624 -2208
WIRE 624 -2176 624 -2208
WIRE 736 -2176 736 -2208
WIRE 1840 -2160 1728 -2160
WIRE 2160 -2160 2160 -2176
WIRE 2192 -2160 2160 -2160
WIRE 2160 -2144 2160 -2160
WIRE 1728 -2128 1728 -2160
WIRE 1840 -2128 1840 -2160
WIRE 1376 -2080 1344 -2080
WIRE 1472 -2080 1440 -2080
WIRE 624 -2064 624 -2096
WIRE 736 -2064 736 -2096
WIRE 736 -2064 624 -2064
WIRE 2160 -2048 2160 -2064
WIRE 2176 -2048 2160 -2048
WIRE 1344 -2016 1344 -2080
WIRE 1360 -2016 1344 -2016
WIRE 1472 -2016 1472 -2080
WIRE 1472 -2016 1440 -2016
WIRE 1728 -2016 1728 -2048
WIRE 1840 -2016 1840 -2048
WIRE 1840 -2016 1728 -2016
WIRE 672 -2000 576 -2000
WIRE 944 -2000 672 -2000
WIRE 1840 -2000 1840 -2016
WIRE 576 -1936 576 -2000
WIRE 672 -1936 672 -2000
WIRE 1232 -1936 1200 -1936
WIRE 1344 -1936 1344 -2016
WIRE 1344 -1936 1312 -1936
WIRE 1376 -1936 1344 -1936
WIRE 1472 -1920 1472 -2016
WIRE 1472 -1920 1440 -1920
WIRE 1600 -1920 1472 -1920
WIRE 1728 -1920 1648 -1920
WIRE 1824 -1920 1728 -1920
WIRE 2096 -1920 1824 -1920
WIRE 944 -1904 944 -2000
WIRE 976 -1904 944 -1904
WIRE 1376 -1904 1344 -1904
WIRE 1056 -1888 1040 -1888
WIRE 1136 -1888 1056 -1888
WIRE 976 -1872 944 -1872
WIRE 1728 -1856 1728 -1920
WIRE 1824 -1856 1824 -1920
WIRE 1344 -1824 1344 -1904
WIRE 1408 -1824 1344 -1824
WIRE 1520 -1824 1488 -1824
WIRE 1600 -1824 1600 -1920
WIRE 1600 -1824 1584 -1824
WIRE 2096 -1824 2096 -1920
WIRE 2128 -1824 2096 -1824
WIRE 2208 -1808 2192 -1808
WIRE 2288 -1808 2208 -1808
WIRE 2128 -1792 2096 -1792
WIRE 576 -1776 576 -1856
WIRE 672 -1776 672 -1856
WIRE 672 -1776 576 -1776
WIRE 848 -1776 672 -1776
WIRE 944 -1776 944 -1872
WIRE 944 -1776 928 -1776
WIRE 960 -1776 944 -1776
WIRE 1056 -1776 1056 -1888
WIRE 1056 -1776 1040 -1776
WIRE 672 -1760 672 -1776
WIRE 1344 -1760 1344 -1824
WIRE 1648 -1760 1648 -1920
WIRE 1648 -1760 1344 -1760
WIRE 1728 -1696 1728 -1776
WIRE 1824 -1696 1824 -1776
WIRE 1824 -1696 1728 -1696
WIRE 2000 -1696 1824 -1696
WIRE 2096 -1696 2096 -1792
WIRE 2096 -1696 2080 -1696
WIRE 2112 -1696 2096 -1696
WIRE 2208 -1696 2208 -1808
WIRE 2208 -1696 2192 -1696
WIRE 1824 -1680 1824 -1696
FLAG 2192 -2160 -
IOPIN 2192 -2160 BiDir
FLAG 2176 -2384 +
IOPIN 2176 -2384 BiDir
FLAG 2208 -2256 0
FLAG 2176 -2048 VL+
IOPIN 2176 -2048 BiDir
FLAG 2160 -1776 +
IOPIN 2160 -1776 BiDir
FLAG 2160 -1840 -
IOPIN 2160 -1840 BiDir
FLAG 1408 -1952 +
IOPIN 1408 -1952 BiDir
FLAG 1408 -1888 -
IOPIN 1408 -1888 BiDir
FLAG 1200 -1936 0
FLAG 1984 -2256 -
IOPIN 1984 -2256 BiDir
FLAG 1824 -1680 0
FLAG 1008 -1856 +
IOPIN 1008 -1856 BiDir
FLAG 1008 -1920 -
IOPIN 1008 -1920 BiDir
FLAG 672 -1760 0
FLAG 736 -2064 -
IOPIN 736 -2064 BiDir
FLAG 1840 -2000 0
SYMBOL voltage 2160 -2272 M0
WINDOW 123 0 0 Left 2
WINDOW 39 -63 34 Left 2
WINDOW 0 -53 60 Left 2
WINDOW 3 -15 62 Left 2
SYMATTR SpiceLine Rser=0
SYMATTR InstName V2
SYMATTR Value 15
SYMBOL voltage 2160 -2384 M0
WINDOW 123 0 0 Left 2
WINDOW 39 -61 27 Left 2
WINDOW 0 -54 49 Left 2
WINDOW 3 -9 55 Left 2
SYMATTR SpiceLine Rser=0
SYMATTR InstName V4
SYMATTR Value 15
SYMBOL voltage 2160 -2048 M180
WINDOW 123 0 0 Left 2
WINDOW 39 13 78 Left 2
WINDOW 0 37 57 Left 2
WINDOW 3 -3 60 Left 2
SYMATTR SpiceLine Rser=0
SYMATTR InstName V3
SYMATTR Value 5
SYMBOL Misc\\EuropeanResistor 1840 -1872 M0
SYMATTR InstName R27
SYMATTR Value 500
SYMBOL Opamps\\opamp2 2160 -1744 M180
WINDOW 3 -32 63 Left 2
SYMATTR Value lm318
SYMATTR InstName U2
SYMBOL Misc\\EuropeanResistor 1984 -1680 R270
WINDOW 0 27 56 VTop 2
WINDOW 3 5 56 VBottom 2
SYMATTR InstName R30
SYMATTR Value 47
SYMBOL Misc\\EuropeanResistor 2096 -1680 R270
WINDOW 0 27 56 VTop 2
WINDOW 3 5 56 VBottom 2
SYMATTR InstName R31
SYMATTR Value 47k
SYMBOL ind2 1712 -1872 R0
SYMATTR InstName L2
SYMATTR Value 400µH
SYMATTR SpiceLine Rser=.4 Cpar=220p
SYMATTR Type ind
SYMBOL Opamps\\opamp2 1408 -1984 R0
WINDOW 3 -32 63 Left 2
SYMATTR Value lm318
SYMATTR InstName U1
SYMBOL Misc\\EuropeanResistor 1344 -2032 M90
WINDOW 0 5 56 VBottom 2
WINDOW 3 27 56 VTop 2
SYMATTR InstName R23
SYMATTR Value 1k
SYMBOL Misc\\EuropeanCap 1440 -2064 M270
WINDOW 0 32 32 VTop 2
WINDOW 3 0 32 VBottom 2
SYMATTR InstName C13
SYMATTR Value 10p
SYMATTR SpiceLine V=400 Irms=1 Rser=.32 Lser=0
SYMBOL Misc\\EuropeanResistor 1216 -1952 M90
WINDOW 0 25 76 VBottom 2
WINDOW 3 6 38 VTop 2
SYMATTR InstName R28
SYMATTR Value 1k
SYMBOL Misc\\EuropeanCap 1584 -1808 M270
WINDOW 0 32 32 VTop 2
WINDOW 3 0 32 VBottom 2
SYMATTR InstName C14
SYMATTR Value 150p
SYMATTR SpiceLine V=400 Irms=1 Rser=.32 Lser=0
SYMBOL Misc\\EuropeanResistor 1392 -1840 M90
WINDOW 0 5 56 VBottom 2
WINDOW 3 27 56 VTop 2
SYMATTR InstName R42
SYMATTR Value 100
SYMBOL ind2 1856 -2384 R0
SYMATTR InstName L3
SYMATTR Value 250µH
SYMATTR SpiceLine Rser=.1 Cpar=0
SYMATTR Type ind
SYMBOL voltage 1984 -2384 M0
WINDOW 0 -18 57 Left 2
WINDOW 3 -134 119 Invisible 2
WINDOW 123 0 0 Left 2
SYMATTR InstName dsads
SYMATTR Value PULSE(0 .01 0 1e-10 1e-10 .0000001 .001 1000)
SYMATTR SpiceLine Rser=.1
SYMBOL Misc\\EuropeanResistor 688 -1952 M0
SYMATTR InstName R1
SYMATTR Value 500
SYMBOL Opamps\\opamp2 1008 -1824 M180
WINDOW 3 -32 63 Left 2
SYMATTR Value lm318
SYMATTR InstName U3
SYMBOL Misc\\EuropeanResistor 832 -1760 R270
WINDOW 0 27 56 VTop 2
WINDOW 3 5 56 VBottom 2
SYMATTR InstName R2
SYMATTR Value 47
SYMBOL Misc\\EuropeanResistor 944 -1760 R270
WINDOW 0 27 56 VTop 2
WINDOW 3 5 56 VBottom 2
SYMATTR InstName R3
SYMATTR Value 47k
SYMBOL ind2 560 -1952 R0
SYMATTR InstName L1
SYMATTR Value 400µH
SYMATTR SpiceLine Rser=.4 Cpar=220p
SYMATTR Type ind
SYMBOL ind2 608 -2192 R0
SYMATTR InstName L4
SYMATTR Value 250µH
SYMATTR SpiceLine Rser=.1 Cpar=0
SYMATTR Type ind
SYMBOL voltage 736 -2192 M0
WINDOW 0 -18 57 Left 2
WINDOW 3 -134 119 Invisible 2
WINDOW 123 0 0 Left 2
SYMATTR InstName dsads1
SYMATTR Value PULSE(0 .01 0 1e-10 1e-10 .0000001 .001 1000)
SYMATTR SpiceLine Rser=10k
SYMBOL ind2 1712 -2144 R0
SYMATTR InstName L5
SYMATTR Value 5µH
SYMATTR SpiceLine Rser=.1 Cpar=0
SYMATTR Type ind
SYMBOL Misc\\EuropeanResistor 1856 -2144 M0
SYMATTR InstName R4
SYMATTR Value 500
TEXT 2024 -2032 Left 2 !.tran 0 0.0011 0.00095 1e-7
TEXT 2056 -2008 Left 2 !.lib NE5532.sub
TEXT 2048 -1976 Left 2 !.lib LM318.sub
TEXT 1720 -1952 Left 2 !K1 L3 L2 0.001
TEXT 568 -2032 Left 2 !K2 L4 L1 0.001
TEXT 1720 -1976 Left 2 !K3 L5 L2 0.999
