Version 4
SHEET 1 6068 1612
WIRE 3280 -3008 3232 -3008
WIRE 3424 -3008 3360 -3008
WIRE 3472 -3008 3424 -3008
WIRE 3584 -3008 3536 -3008
WIRE 3424 -2992 3424 -3008
WIRE 2672 -2944 2624 -2944
WIRE 2624 -2912 2624 -2944
WIRE 3232 -2880 3232 -3008
WIRE 3248 -2880 3232 -2880
WIRE 3424 -2880 3424 -2912
WIRE 3456 -2880 3424 -2880
WIRE 3424 -2864 3424 -2880
WIRE 3424 -2864 3360 -2864
WIRE 3584 -2864 3584 -3008
WIRE 3584 -2864 3568 -2864
WIRE 3232 -2848 3232 -2880
WIRE 3248 -2848 3232 -2848
WIRE 3456 -2848 3424 -2848
FLAG 2752 -2944 0
FLAG 2752 -3024 VDD
IOPIN 2752 -3024 BiDir
FLAG 2624 -2912 0
FLAG 2672 -3024 +op
IOPIN 2672 -3024 BiDir
FLAG 2672 -2864 -op
IOPIN 2672 -2864 BiDir
FLAG 3424 -2848 VDD
IOPIN 3424 -2848 BiDir
SYMBOL voltage 2752 -3040 R0
WINDOW 39 0 0 Left 2
WINDOW 0 24 16 Invisible 2
WINDOW 3 24 96 Invisible 2
SYMATTR InstName V7
SYMATTR Value 5
SYMBOL voltage 2672 -2960 R0
WINDOW 0 24 16 Invisible 2
WINDOW 3 -10 56 Left 2
SYMATTR InstName V2
SYMATTR Value 15
SYMATTR SpiceLine Rser=0
SYMBOL voltage 2672 -3040 R0
WINDOW 0 24 16 Invisible 2
WINDOW 3 -10 56 Left 2
SYMATTR InstName V1
SYMATTR Value 15
SYMATTR SpiceLine Rser=0
SYMBOL CD4000\\CD4011B 3296 -2928 R0
SYMATTR InstName U5
SYMBOL CD4000\\CD4011B 3504 -2928 R0
SYMATTR InstName U6
SYMBOL Misc\\EuropeanResistor 3408 -2896 M180
WINDOW 0 31 76 Left 2
WINDOW 3 31 40 Left 2
SYMATTR InstName R1
SYMATTR Value 10k
SYMBOL Misc\\EuropeanCap 3536 -3024 R90
WINDOW 0 0 32 VBottom 2
WINDOW 3 32 32 VTop 2
SYMATTR InstName C1
SYMATTR Value 10µ
SYMATTR SpiceLine Rser=.0008
SYMBOL Misc\\EuropeanResistor 3264 -3024 M90
WINDOW 0 5 56 VBottom 2
WINDOW 3 27 56 VTop 2
SYMATTR InstName R2
SYMATTR Value 10k
TEXT 2784 -2848 Left 2 !.model SWI SW(Ron=1n Roff=1000G Vt=0.5 Vh=.4)
TEXT 2776 -2824 Left 2 !.model SW2 SW(Ron=1n Roff=1000G Vt=0.0 Vh=1u)
TEXT 2808 -2888 Left 2 !.param charge_pulse_width     1.u
TEXT 2936 -2776 Left 2 !.lib LM318.sub
TEXT 2808 -2960 Left 2 !.lib CD4066.sub
TEXT 2808 -2912 Left 2 !.inc CD4000.lib
TEXT 2800 -2992 Left 2 !.include cd4066.sub
TEXT 2850 -2942 Left 2 !.tran .00025 startup
