Version 4
SHEET 1 6068 1612
WIRE 2736 -3120 2720 -3120
WIRE 2352 -3088 2320 -3088
WIRE 2640 -3056 2624 -3056
WIRE 2640 -3040 2640 -3056
WIRE 2832 -3024 2816 -3024
WIRE 2320 -2992 2320 -3088
WIRE 2352 -2992 2320 -2992
WIRE 2592 -2992 2560 -2992
WIRE 2816 -2992 2816 -3024
WIRE 2880 -2976 2880 -3024
WIRE 2880 -2976 2848 -2976
WIRE 2320 -2960 2320 -2992
WIRE 2352 -2960 2320 -2960
WIRE 2640 -2944 2640 -2960
WIRE 2656 -2944 2640 -2944
WIRE 2640 -2928 2640 -2944
WIRE 2752 -2880 2752 -3024
WIRE 2816 -2880 2816 -2912
WIRE 2832 -2880 2816 -2880
WIRE 2880 -2880 2880 -2976
WIRE 2576 -2864 2560 -2864
WIRE 2592 -2848 2592 -2992
WIRE 2352 -2832 2336 -2832
WIRE 2752 -2832 2752 -2880
WIRE 2768 -2832 2752 -2832
WIRE 2768 -2800 2768 -2832
WIRE 2656 -2784 2656 -2944
WIRE 2656 -2784 2640 -2784
WIRE 2576 -2736 2560 -2736
WIRE 2352 -2704 2336 -2704
WIRE 2592 -2704 2560 -2704
FLAG 2336 -2704 0
FLAG 2336 -2832 VDD
IOPIN 2336 -2832 BiDir
FLAG 2704 -2880 0
FLAG 2704 -2960 VDD
IOPIN 2704 -2960 BiDir
FLAG 2768 -2800 0
FLAG 2640 -3120 0
FLAG 2736 -3120 +
IOPIN 2736 -3120 BiDir
FLAG 2848 -2912 0
FLAG 2432 -3088 0
FLAG 2720 -3056 0
FLAG 2640 -2688 0
FLAG 2560 -2832 +
IOPIN 2560 -2832 BiDir
FLAG 2624 -3056 +
IOPIN 2624 -3056 BiDir
FLAG 2576 -2864 0
FLAG 2560 -2960 +
IOPIN 2560 -2960 BiDir
FLAG 2576 -2736 0
FLAG 2640 -2832 0
SYMBOL ind2 2832 -2896 R180
WINDOW 0 36 80 Invisible 2
WINDOW 3 -2 31 Left 2
SYMATTR InstName L2
SYMATTR Value 96m65
SYMATTR SpiceLine Rser=.6 Cpar=95p
SYMATTR Type ind
SYMBOL diode 2816 -3008 R270
WINDOW 0 32 32 Invisible 2
WINDOW 3 0 32 Invisible 2
SYMATTR InstName D1
SYMATTR Value 1N4148
SYMBOL ind2 2624 -2944 M180
WINDOW 0 36 80 Invisible 2
WINDOW 3 3 30 Left 2
SYMATTR InstName L3
SYMATTR Value 45µ
SYMATTR SpiceLine Rser=.0003
SYMATTR Type ind
SYMBOL Misc\\EuropeanCap 2736 -3120 M0
WINDOW 3 -32 57 Left 2
SYMATTR Value 6600µ
SYMATTR InstName C3
SYMATTR SpiceLine Rser=.005
SYMBOL IR2110 2448 -2848 R0
WINDOW 0 16 -157 Center 2
WINDOW 3 14 -130 Center 2
SYMATTR InstName U1
SYMBOL voltage 2704 -2976 R0
WINDOW 39 0 0 Left 2
WINDOW 0 24 16 Invisible 2
WINDOW 3 24 96 Invisible 2
SYMATTR InstName V7
SYMATTR Value 5
SYMBOL diode 2816 -2864 R270
WINDOW 0 32 32 Invisible 2
WINDOW 3 0 32 Invisible 2
SYMATTR InstName D2
SYMATTR Value 1N4148
SYMBOL diode 2752 -3008 R270
WINDOW 0 32 32 Invisible 2
WINDOW 3 0 32 Invisible 2
SYMATTR InstName D3
SYMATTR Value 1N4148
SYMBOL diode 2752 -2864 R270
WINDOW 0 32 32 Invisible 2
WINDOW 3 0 32 Invisible 2
SYMATTR InstName D4
SYMATTR Value 1N4148
SYMBOL voltage 2736 -3120 R90
WINDOW 0 -32 56 VBottom 2
WINDOW 3 32 56 VTop 2
WINDOW 123 0 0 Left 2
SYMATTR InstName V5
SYMATTR Value 15
SYMATTR SpiceLine Rser=.5
SYMBOL Misc\\EuropeanCap 2832 -2976 R0
WINDOW 0 24 4 Invisible 2
WINDOW 3 -30 33 Invisible 2
SYMATTR InstName C6
SYMATTR Value 10n
SYMATTR SpiceLine Rser=.7
SYMBOL voltage 2336 -3088 M90
WINDOW 0 32 8 Invisible 2
WINDOW 3 64 -82 Invisible 2
WINDOW 123 0 0 Left 2
SYMATTR InstName V1
SYMATTR Value PULSE(0 5 0 10n 10n {duty/freq} {1/freq})
SYMATTR SpiceLine Rser=0
SYMBOL nmos 2592 -2784 R0
WINDOW 0 -21 44 Invisible 2
WINDOW 3 -12 -5 Invisible 2
SYMATTR InstName M1
SYMATTR Value IRF740
SYMBOL nmos 2592 -2928 R0
WINDOW 0 -21 44 Invisible 2
WINDOW 3 -12 -5 Invisible 2
SYMATTR InstName M2
SYMATTR Value IRF740
TEXT 2672 -2776 Left 2 !.tran 500u
TEXT 2472 -3088 Left 2 !K3 L3 L2 1.0
TEXT 2400 -2896 Left 2 !.inc ir2110.sub
TEXT 2672 -2712 Left 2 !.lib LM318.sub
TEXT 2672 -2760 Left 2 !.model SW2 SW(Ron=1n Roff=1000G Vt=0.5 Vh=.4)
TEXT 2672 -2744 Left 2 !.lib CD4066.sub
TEXT 2672 -2696 Left 2 !.inc CD4000.lib
TEXT 2672 -2680 Left 2 !.inc cd4066.sub
TEXT 2672 -2728 Left 2 !.lib NE5532.sub
TEXT 2896 -3016 Left 2 !.step param duty=0.1 0.95 0.05\n.param freq=500k\n \n;.param duty=.5\n;.step param freq list 10k 20k 50k 100k 200k 500k 750k 1000k\n \n;.step param duty list .05 .1 .2 .5 .7 .9 .95\n;.step param freq list 100k 250k 500k 750k\n \n; best 250k duty=0.8\n; best 500k duty=0.75  2.02Kv
