Version 4
SHEET 1 6068 1612
WIRE -608 -2640 -608 -2704
WIRE -368 -2592 -384 -2592
WIRE -384 -2576 -384 -2592
WIRE 368 -2496 304 -2496
WIRE 544 -2496 368 -2496
WIRE -608 -2480 -608 -2560
WIRE -384 -2480 -384 -2496
WIRE 368 -2464 368 -2496
WIRE 544 -2464 544 -2496
WIRE -176 -2384 -208 -2384
WIRE 240 -2384 32 -2384
WIRE 880 -2384 672 -2384
WIRE 1120 -2384 1088 -2384
WIRE -560 -2368 -608 -2368
WIRE 1440 -2368 1392 -2368
WIRE 1552 -2368 1440 -2368
WIRE 1648 -2368 1552 -2368
WIRE -176 -2352 -208 -2352
WIRE 64 -2352 32 -2352
WIRE 144 -2352 64 -2352
WIRE 848 -2352 768 -2352
WIRE 880 -2352 848 -2352
WIRE 1120 -2352 1088 -2352
WIRE 64 -2336 64 -2352
WIRE 144 -2336 144 -2352
WIRE 368 -2336 368 -2368
WIRE 416 -2336 368 -2336
WIRE 544 -2336 544 -2368
WIRE 544 -2336 496 -2336
WIRE 768 -2336 768 -2352
WIRE 848 -2336 848 -2352
WIRE 1328 -2320 1328 -2368
WIRE 1408 -2320 1392 -2320
WIRE -560 -2288 -608 -2288
WIRE 1552 -2288 1552 -2368
WIRE 1648 -2288 1648 -2368
WIRE 64 -2256 64 -2272
WIRE 64 -2256 32 -2256
WIRE 368 -2256 368 -2336
WIRE 368 -2256 64 -2256
WIRE 544 -2256 544 -2336
WIRE 848 -2256 848 -2272
WIRE 848 -2256 544 -2256
WIRE 880 -2256 848 -2256
WIRE 1328 -2256 1328 -2320
WIRE -240 -2224 -272 -2224
WIRE -176 -2224 -240 -2224
WIRE 64 -2224 32 -2224
WIRE 144 -2224 144 -2272
WIRE 144 -2224 64 -2224
WIRE 160 -2224 144 -2224
WIRE 768 -2224 768 -2272
WIRE 768 -2224 752 -2224
WIRE 848 -2224 768 -2224
WIRE 880 -2224 848 -2224
WIRE 1152 -2224 1088 -2224
WIRE 1184 -2224 1152 -2224
WIRE 64 -2208 64 -2224
WIRE 848 -2208 848 -2224
WIRE -240 -2192 -240 -2224
WIRE 1152 -2192 1152 -2224
WIRE 368 -2176 368 -2256
WIRE 544 -2176 544 -2256
WIRE 1328 -2144 1328 -2176
WIRE 1408 -2144 1408 -2320
WIRE 1408 -2144 1392 -2144
WIRE 1552 -2144 1552 -2224
WIRE 1552 -2144 1408 -2144
WIRE 1648 -2144 1648 -2208
WIRE 1648 -2144 1552 -2144
WIRE 64 -2128 64 -2144
WIRE 64 -2128 32 -2128
WIRE 848 -2128 848 -2144
WIRE 880 -2128 848 -2128
WIRE 1552 -2112 1552 -2144
WIRE -240 -2096 -240 -2128
WIRE -176 -2096 -240 -2096
WIRE 224 -2096 32 -2096
WIRE 320 -2096 304 -2096
WIRE 608 -2096 592 -2096
WIRE 880 -2096 688 -2096
WIRE 1152 -2096 1152 -2128
WIRE 1152 -2096 1088 -2096
WIRE 1328 -2080 1328 -2144
WIRE 1440 -2080 1440 -2368
WIRE 1440 -2080 1392 -2080
WIRE 64 -2048 64 -2128
WIRE 368 -2048 368 -2080
WIRE 368 -2048 64 -2048
WIRE 544 -2048 544 -2080
WIRE 544 -2048 368 -2048
WIRE 848 -2048 848 -2128
WIRE 848 -2048 544 -2048
WIRE -240 -2016 -240 -2096
WIRE 368 -2016 368 -2048
WIRE 1152 -2016 1152 -2096
FLAG -368 -2592 +
IOPIN -368 -2592 BiDir
FLAG -384 -2480 0
FLAG 368 -2016 0
FLAG 160 -2224 VCC
FLAG -608 -2480 0
FLAG -608 -2704 VCC
FLAG -240 -2016 0
FLAG -608 -2288 0
FLAG -608 -2368 0
FLAG -272 -2224 +
IOPIN -272 -2224 BiDir
FLAG 304 -2496 +
IOPIN 304 -2496 BiDir
FLAG 1552 -2112 0
FLAG -480 -2368 hi
FLAG -480 -2288 lo
FLAG -208 -2384 hi
FLAG -208 -2352 lo
FLAG 752 -2224 VCC
FLAG 1152 -2016 0
FLAG 1184 -2224 +
IOPIN 1184 -2224 BiDir
FLAG 1120 -2384 lo
FLAG 1120 -2352 hi
SYMBOL voltage -384 -2592 M0
WINDOW 123 0 0 Left 2
WINDOW 39 -61 27 Left 2
WINDOW 0 -54 49 Left 2
WINDOW 3 -9 55 Left 2
SYMATTR SpiceLine Rser=0
SYMATTR InstName V4
SYMATTR Value 15
SYMBOL nmos 320 -2176 R0
WINDOW 0 -21 44 Left 2
WINDOW 3 -12 -5 Left 2
SYMATTR InstName M3
SYMATTR Value IRF740
SYMBOL nmos 320 -2464 R0
WINDOW 0 -21 44 Left 2
WINDOW 3 -12 -5 Left 2
SYMATTR InstName M1
SYMATTR Value IRF740
SYMBOL Misc\\EuropeanCap 48 -2336 R0
SYMATTR InstName C1
SYMATTR Value 2µ2
SYMATTR SpiceLine V=400 Irms=1 Lser=0
SYMBOL schottky 160 -2272 R180
WINDOW 0 -29 68 Left 2
WINDOW 3 -106 -4 Left 2
SYMATTR InstName D2
SYMATTR Value MURS120
SYMATTR Description Diode
SYMATTR Type diode
SYMBOL cap -256 -2192 R0
SYMATTR InstName C5
SYMATTR Value 10µf
SYMBOL IR2110 -80 -2240 R0
WINDOW 0 16 -157 Center 2
SYMATTR InstName U4
SYMBOL voltage -608 -2656 R0
WINDOW 123 0 0 Left 2
WINDOW 39 0 0 Left 2
SYMATTR InstName V9
SYMATTR Value 12
SYMBOL voltage -464 -2368 R90
WINDOW 3 -46 -119 VRight 2
WINDOW 123 0 0 Left 2
WINDOW 39 0 0 Left 2
WINDOW 0 5 11 Left 2
SYMATTR Value PULSE(0 12 2.5u 10n 10n 2u 5u)
SYMATTR InstName V10
SYMBOL ind2 512 -2352 R90
WINDOW 0 4 56 VBottom 2
WINDOW 3 32 56 VTop 2
SYMATTR InstName L3
SYMATTR Value 300µ
SYMATTR SpiceLine Rser=.001
SYMATTR Type ind
SYMBOL ind2 1344 -2160 R180
WINDOW 0 36 80 Left 2
WINDOW 3 36 40 Left 2
SYMATTR InstName L5
SYMATTR Value 100m
SYMATTR SpiceLine Rser=.1
SYMATTR Type ind
SYMBOL Misc\\EuropeanResistor 224 -2400 M90
WINDOW 0 5 56 VBottom 2
WINDOW 3 27 56 VTop 2
SYMATTR InstName R1
SYMATTR Value 33
SYMBOL Misc\\EuropeanResistor 208 -2112 M90
WINDOW 0 5 56 VBottom 2
WINDOW 3 27 56 VTop 2
SYMATTR InstName R3
SYMATTR Value 33
SYMBOL Misc\\EuropeanCap 48 -2208 R0
SYMATTR InstName C3
SYMATTR Value 2µ2
SYMATTR SpiceLine V=400 Irms=1 Lser=0
SYMBOL diode 1328 -2352 R270
WINDOW 0 32 32 VTop 2
WINDOW 3 0 32 VBottom 2
SYMATTR InstName D6
SYMATTR Value 1N4148
SYMBOL diode 1392 -2304 M270
WINDOW 0 32 32 VTop 2
WINDOW 3 0 32 VBottom 2
SYMATTR InstName D7
SYMATTR Value 1N4148
SYMBOL diode 1392 -2128 M270
WINDOW 0 32 32 VTop 2
WINDOW 3 0 32 VBottom 2
SYMATTR InstName D8
SYMATTR Value 1N4148
SYMBOL diode 1328 -2064 R270
WINDOW 0 32 32 VTop 2
WINDOW 3 0 32 VBottom 2
SYMATTR InstName D9
SYMATTR Value 1N4148
SYMBOL Misc\\EuropeanCap 1536 -2288 R0
SYMATTR InstName C4
SYMATTR Value 1n
SYMBOL Misc\\EuropeanResistor 1664 -2304 M0
SYMATTR InstName R4
SYMATTR Value 100k
SYMBOL nmos 592 -2176 M0
WINDOW 0 -21 44 Left 2
WINDOW 3 -12 -5 Left 2
SYMATTR InstName M2
SYMATTR Value IRF740
SYMBOL nmos 592 -2464 M0
WINDOW 0 -21 44 Left 2
WINDOW 3 -12 -5 Left 2
SYMATTR InstName M4
SYMATTR Value IRF740
SYMBOL Misc\\EuropeanCap 864 -2336 M0
SYMATTR InstName C2
SYMATTR Value 2µ2
SYMATTR SpiceLine V=400 Irms=1 Lser=0
SYMBOL schottky 752 -2272 M180
WINDOW 0 -29 68 Left 2
WINDOW 3 -106 -4 Left 2
SYMATTR InstName D1
SYMATTR Value MURS120
SYMATTR Description Diode
SYMATTR Type diode
SYMBOL cap 1168 -2192 M0
SYMATTR InstName C6
SYMATTR Value 10µf
SYMBOL IR2110 992 -2240 M0
WINDOW 0 16 -157 Center 2
SYMATTR InstName U1
SYMBOL Misc\\EuropeanResistor 688 -2400 R90
WINDOW 0 5 56 VBottom 2
WINDOW 3 27 56 VTop 2
SYMATTR InstName R2
SYMATTR Value 33
SYMBOL Misc\\EuropeanResistor 704 -2112 R90
WINDOW 0 5 56 VBottom 2
WINDOW 3 27 56 VTop 2
SYMATTR InstName R5
SYMATTR Value 33
SYMBOL Misc\\EuropeanCap 864 -2208 M0
SYMATTR InstName C7
SYMATTR Value 2µ2
SYMATTR SpiceLine V=400 Irms=1 Lser=0
SYMBOL voltage -464 -2288 R90
WINDOW 3 -46 -119 VRight 2
WINDOW 123 0 0 Left 2
WINDOW 39 0 0 Left 2
WINDOW 0 5 11 Left 2
SYMATTR Value PULSE(0 12 0 10n 10n 2u 5u)
SYMATTR InstName V1
TEXT -536 -2552 Left 2 !.lib NE5532.sub
TEXT -544 -2520 Left 2 !.lib LM318.sub
TEXT -480 -2744 Left 2 !.include ir2110.sub
TEXT 376 -2576 Left 2 !K2 L3 L5 1.0
TEXT -390 -1996 Left 2 !.tran .1
