Version 4
SHEET 1 6068 1612
WIRE 224 -3712 208 -3712
WIRE 368 -3712 224 -3712
WIRE 640 -3712 368 -3712
WIRE 768 -3712 640 -3712
WIRE 832 -3712 768 -3712
WIRE 1072 -3712 832 -3712
WIRE 368 -3680 368 -3712
WIRE 640 -3680 640 -3712
WIRE 768 -3680 768 -3712
WIRE 832 -3680 832 -3712
WIRE 224 -3648 224 -3712
WIRE 16 -3632 -16 -3632
WIRE -16 -3616 -16 -3632
WIRE 1072 -3616 1072 -3712
WIRE 768 -3584 768 -3616
WIRE 832 -3584 832 -3600
WIRE 832 -3584 768 -3584
WIRE 368 -3568 368 -3600
WIRE 912 -3568 368 -3568
WIRE 1008 -3568 992 -3568
WIRE 832 -3536 832 -3584
WIRE 368 -3520 368 -3568
WIRE 640 -3488 640 -3600
WIRE 672 -3488 640 -3488
WIRE 768 -3488 752 -3488
WIRE 304 -3472 288 -3472
WIRE 640 -3472 640 -3488
WIRE 1072 -3472 1072 -3520
WIRE 1152 -3472 1072 -3472
WIRE 1200 -3472 1152 -3472
WIRE 16 -3456 -16 -3456
WIRE -16 -3440 -16 -3456
WIRE 576 -3424 560 -3424
WIRE 1072 -3424 1072 -3472
WIRE 832 -3376 832 -3440
WIRE 912 -3376 832 -3376
WIRE 1008 -3376 992 -3376
WIRE 368 -3360 368 -3424
WIRE 432 -3360 368 -3360
WIRE 368 -3344 368 -3360
WIRE 432 -3344 432 -3360
WIRE 832 -3344 832 -3376
WIRE 1152 -3328 1152 -3472
WIRE 368 -3232 368 -3280
WIRE 432 -3232 432 -3264
WIRE 432 -3232 368 -3232
WIRE 640 -3232 640 -3376
WIRE 640 -3232 432 -3232
WIRE 832 -3232 832 -3264
WIRE 832 -3232 640 -3232
WIRE 1072 -3232 1072 -3328
WIRE 1072 -3232 832 -3232
WIRE 1152 -3232 1152 -3248
WIRE 1152 -3232 1072 -3232
WIRE 224 -3104 208 -3104
WIRE 368 -3104 224 -3104
WIRE 640 -3104 368 -3104
WIRE 768 -3104 640 -3104
WIRE 832 -3104 768 -3104
WIRE 1072 -3104 832 -3104
WIRE 368 -3072 368 -3104
WIRE 640 -3072 640 -3104
WIRE 768 -3072 768 -3104
WIRE 832 -3072 832 -3104
WIRE 224 -3040 224 -3104
WIRE 48 -3024 16 -3024
WIRE 16 -3008 16 -3024
WIRE 1072 -3008 1072 -3104
WIRE 768 -2976 768 -3008
WIRE 832 -2976 832 -2992
WIRE 832 -2976 768 -2976
WIRE 368 -2960 368 -2992
WIRE 912 -2960 368 -2960
WIRE 1008 -2960 992 -2960
WIRE 832 -2928 832 -2976
WIRE 368 -2912 368 -2960
WIRE 640 -2880 640 -2992
WIRE 672 -2880 640 -2880
WIRE 768 -2880 752 -2880
WIRE 304 -2864 288 -2864
WIRE 640 -2864 640 -2880
WIRE 1072 -2864 1072 -2912
WIRE 1152 -2864 1072 -2864
WIRE 1200 -2864 1152 -2864
WIRE 576 -2816 560 -2816
WIRE 1072 -2816 1072 -2864
WIRE 48 -2800 16 -2800
WIRE 16 -2784 16 -2800
WIRE 832 -2768 832 -2832
WIRE 912 -2768 832 -2768
WIRE 1008 -2768 992 -2768
WIRE 368 -2752 368 -2816
WIRE 432 -2752 368 -2752
WIRE 368 -2736 368 -2752
WIRE 432 -2736 432 -2752
WIRE 832 -2736 832 -2768
WIRE 1152 -2720 1152 -2864
WIRE -608 -2640 -608 -2704
WIRE 368 -2624 368 -2672
WIRE 432 -2624 432 -2656
WIRE 432 -2624 368 -2624
WIRE 640 -2624 640 -2768
WIRE 640 -2624 432 -2624
WIRE 832 -2624 832 -2656
WIRE 832 -2624 640 -2624
WIRE 1072 -2624 1072 -2720
WIRE 1072 -2624 832 -2624
WIRE 1152 -2624 1152 -2640
WIRE 1152 -2624 1072 -2624
WIRE -368 -2592 -384 -2592
WIRE -384 -2576 -384 -2592
WIRE 368 -2496 304 -2496
WIRE 544 -2496 368 -2496
WIRE -608 -2480 -608 -2560
WIRE -384 -2480 -384 -2496
WIRE 368 -2464 368 -2496
WIRE 544 -2464 544 -2496
WIRE -176 -2384 -208 -2384
WIRE 240 -2384 32 -2384
WIRE 880 -2384 672 -2384
WIRE 1120 -2384 1088 -2384
WIRE -560 -2368 -608 -2368
WIRE 1440 -2368 1392 -2368
WIRE 1552 -2368 1440 -2368
WIRE 1648 -2368 1552 -2368
WIRE -176 -2352 -208 -2352
WIRE 64 -2352 32 -2352
WIRE 144 -2352 64 -2352
WIRE 848 -2352 768 -2352
WIRE 880 -2352 848 -2352
WIRE 1120 -2352 1088 -2352
WIRE 64 -2336 64 -2352
WIRE 144 -2336 144 -2352
WIRE 368 -2336 368 -2368
WIRE 416 -2336 368 -2336
WIRE 544 -2336 544 -2368
WIRE 544 -2336 496 -2336
WIRE 768 -2336 768 -2352
WIRE 848 -2336 848 -2352
WIRE 1328 -2320 1328 -2368
WIRE 1408 -2320 1392 -2320
WIRE -560 -2288 -608 -2288
WIRE 1552 -2288 1552 -2368
WIRE 1648 -2288 1648 -2368
WIRE 64 -2256 64 -2272
WIRE 64 -2256 32 -2256
WIRE 368 -2256 368 -2336
WIRE 368 -2256 64 -2256
WIRE 544 -2256 544 -2336
WIRE 848 -2256 848 -2272
WIRE 848 -2256 544 -2256
WIRE 880 -2256 848 -2256
WIRE 1328 -2256 1328 -2320
WIRE -240 -2224 -272 -2224
WIRE -176 -2224 -240 -2224
WIRE 64 -2224 32 -2224
WIRE 144 -2224 144 -2272
WIRE 144 -2224 64 -2224
WIRE 160 -2224 144 -2224
WIRE 768 -2224 768 -2272
WIRE 768 -2224 752 -2224
WIRE 848 -2224 768 -2224
WIRE 880 -2224 848 -2224
WIRE 1152 -2224 1088 -2224
WIRE 1184 -2224 1152 -2224
WIRE 64 -2208 64 -2224
WIRE 848 -2208 848 -2224
WIRE -240 -2192 -240 -2224
WIRE 1152 -2192 1152 -2224
WIRE 368 -2176 368 -2256
WIRE 544 -2176 544 -2256
WIRE 1328 -2144 1328 -2176
WIRE 1408 -2144 1408 -2320
WIRE 1408 -2144 1392 -2144
WIRE 1552 -2144 1552 -2224
WIRE 1552 -2144 1408 -2144
WIRE 1648 -2144 1648 -2208
WIRE 1648 -2144 1552 -2144
WIRE 64 -2128 64 -2144
WIRE 64 -2128 32 -2128
WIRE 848 -2128 848 -2144
WIRE 880 -2128 848 -2128
WIRE 1552 -2112 1552 -2144
WIRE -240 -2096 -240 -2128
WIRE -176 -2096 -240 -2096
WIRE 224 -2096 32 -2096
WIRE 320 -2096 304 -2096
WIRE 608 -2096 592 -2096
WIRE 880 -2096 688 -2096
WIRE 1152 -2096 1152 -2128
WIRE 1152 -2096 1088 -2096
WIRE 1328 -2080 1328 -2144
WIRE 1440 -2080 1440 -2368
WIRE 1440 -2080 1392 -2080
WIRE 64 -2048 64 -2128
WIRE 368 -2048 368 -2080
WIRE 368 -2048 64 -2048
WIRE 544 -2048 544 -2080
WIRE 544 -2048 368 -2048
WIRE 848 -2048 848 -2128
WIRE 848 -2048 544 -2048
WIRE -240 -2016 -240 -2096
WIRE 368 -2016 368 -2048
WIRE 1152 -2016 1152 -2096
FLAG -368 -2592 +
IOPIN -368 -2592 BiDir
FLAG -384 -2480 0
FLAG 368 -2016 0
FLAG 160 -2224 VCC
FLAG -608 -2480 0
FLAG -608 -2704 VCC
FLAG -240 -2016 0
FLAG -608 -2288 0
FLAG -608 -2368 0
FLAG -272 -2224 +
IOPIN -272 -2224 BiDir
FLAG 304 -2496 +
IOPIN 304 -2496 BiDir
FLAG 1552 -2112 0
FLAG -480 -2368 hi
FLAG -480 -2288 lo
FLAG -208 -2384 hi
FLAG -208 -2352 lo
FLAG 752 -2224 VCC
FLAG 1152 -2016 0
FLAG 1184 -2224 +
IOPIN 1184 -2224 BiDir
FLAG 1120 -2384 lo
FLAG 1120 -2352 hi
FLAG 224 -2976 -
IOPIN 224 -2976 BiDir
FLAG -16 -3536 -
IOPIN -16 -3536 BiDir
FLAG 16 -3632 mosfets_on1
FLAG -16 -3360 -
IOPIN -16 -3360 BiDir
FLAG 16 -3456 mosfets_off1
FLAG 224 -3584 -
IOPIN 224 -3584 BiDir
FLAG 1200 -3472 MD1
FLAG 1200 -2864 MD2
FLAG 368 -3232 -
IOPIN 368 -3232 BiDir
FLAG 368 -2624 -
IOPIN 368 -2624 BiDir
FLAG 480 -2816 mosfets_off2
FLAG 208 -3472 mosfets_on1
FLAG 208 -2864 mosfets_on2
FLAG 480 -3424 mosfets_off1
FLAG 16 -2704 -
IOPIN 16 -2704 BiDir
FLAG 48 -2800 mosfets_off2
FLAG 16 -2928 -
IOPIN 16 -2928 BiDir
FLAG 48 -3024 mosfets_on2
FLAG 208 -3712 +
IOPIN 208 -3712 BiDir
FLAG 208 -3104 +
IOPIN 208 -3104 BiDir
SYMBOL voltage -384 -2592 M0
WINDOW 123 0 0 Left 2
WINDOW 39 -61 27 Left 2
WINDOW 0 -54 49 Left 2
WINDOW 3 -9 55 Left 2
SYMATTR SpiceLine Rser=0
SYMATTR InstName V4
SYMATTR Value 15
SYMBOL nmos 320 -2176 R0
WINDOW 0 -21 44 Left 2
WINDOW 3 -12 -5 Left 2
SYMATTR InstName M3
SYMATTR Value IRF740
SYMBOL nmos 320 -2464 R0
WINDOW 0 -21 44 Left 2
WINDOW 3 -12 -5 Left 2
SYMATTR InstName M1
SYMATTR Value IRF740
SYMBOL Misc\\EuropeanCap 48 -2336 R0
SYMATTR InstName C1
SYMATTR Value 2µ2
SYMATTR SpiceLine V=400 Irms=1 Lser=0
SYMBOL schottky 160 -2272 R180
WINDOW 0 -29 68 Left 2
WINDOW 3 -106 -4 Left 2
SYMATTR InstName D2
SYMATTR Value MURS120
SYMATTR Description Diode
SYMATTR Type diode
SYMBOL cap -256 -2192 R0
SYMATTR InstName C5
SYMATTR Value 10µf
SYMBOL IR2110 -80 -2240 R0
WINDOW 0 16 -157 Center 2
SYMATTR InstName U4
SYMBOL voltage -608 -2656 R0
WINDOW 123 0 0 Left 2
WINDOW 39 0 0 Left 2
SYMATTR InstName V9
SYMATTR Value 12
SYMBOL voltage -464 -2368 R90
WINDOW 3 -46 -119 VRight 2
WINDOW 123 0 0 Left 2
WINDOW 39 0 0 Left 2
WINDOW 0 5 11 Left 2
SYMATTR Value PULSE(0 12 2.5u 10n 10n 2u 5u)
SYMATTR InstName V10
SYMBOL ind2 512 -2352 R90
WINDOW 0 4 56 VBottom 2
WINDOW 3 32 56 VTop 2
SYMATTR InstName L3
SYMATTR Value 300µ
SYMATTR SpiceLine Rser=.001
SYMATTR Type ind
SYMBOL ind2 1344 -2160 R180
WINDOW 0 36 80 Left 2
WINDOW 3 36 40 Left 2
SYMATTR InstName L5
SYMATTR Value 100m
SYMATTR SpiceLine Rser=.1
SYMATTR Type ind
SYMBOL Misc\\EuropeanResistor 224 -2400 M90
WINDOW 0 5 56 VBottom 2
WINDOW 3 27 56 VTop 2
SYMATTR InstName R1
SYMATTR Value 33
SYMBOL Misc\\EuropeanResistor 208 -2112 M90
WINDOW 0 5 56 VBottom 2
WINDOW 3 27 56 VTop 2
SYMATTR InstName R3
SYMATTR Value 33
SYMBOL Misc\\EuropeanCap 48 -2208 R0
SYMATTR InstName C3
SYMATTR Value 2µ2
SYMATTR SpiceLine V=400 Irms=1 Lser=0
SYMBOL diode 1328 -2352 R270
WINDOW 0 32 32 VTop 2
WINDOW 3 0 32 VBottom 2
SYMATTR InstName D6
SYMATTR Value 1N4148
SYMBOL diode 1392 -2304 M270
WINDOW 0 32 32 VTop 2
WINDOW 3 0 32 VBottom 2
SYMATTR InstName D7
SYMATTR Value 1N4148
SYMBOL diode 1392 -2128 M270
WINDOW 0 32 32 VTop 2
WINDOW 3 0 32 VBottom 2
SYMATTR InstName D8
SYMATTR Value 1N4148
SYMBOL diode 1328 -2064 R270
WINDOW 0 32 32 VTop 2
WINDOW 3 0 32 VBottom 2
SYMATTR InstName D9
SYMATTR Value 1N4148
SYMBOL Misc\\EuropeanCap 1536 -2288 R0
SYMATTR InstName C4
SYMATTR Value 1n
SYMBOL Misc\\EuropeanResistor 1664 -2304 M0
SYMATTR InstName R4
SYMATTR Value 100k
SYMBOL nmos 592 -2176 M0
WINDOW 0 -21 44 Left 2
WINDOW 3 -12 -5 Left 2
SYMATTR InstName M2
SYMATTR Value IRF740
SYMBOL nmos 592 -2464 M0
WINDOW 0 -21 44 Left 2
WINDOW 3 -12 -5 Left 2
SYMATTR InstName M4
SYMATTR Value IRF740
SYMBOL Misc\\EuropeanCap 864 -2336 M0
SYMATTR InstName C2
SYMATTR Value 2µ2
SYMATTR SpiceLine V=400 Irms=1 Lser=0
SYMBOL schottky 752 -2272 M180
WINDOW 0 -29 68 Left 2
WINDOW 3 -106 -4 Left 2
SYMATTR InstName D1
SYMATTR Value MURS120
SYMATTR Description Diode
SYMATTR Type diode
SYMBOL cap 1168 -2192 M0
SYMATTR InstName C6
SYMATTR Value 10µf
SYMBOL IR2110 992 -2240 M0
WINDOW 0 16 -157 Center 2
SYMATTR InstName U1
SYMBOL Misc\\EuropeanResistor 688 -2400 R90
WINDOW 0 5 56 VBottom 2
WINDOW 3 27 56 VTop 2
SYMATTR InstName R2
SYMATTR Value 33
SYMBOL Misc\\EuropeanResistor 704 -2112 R90
WINDOW 0 5 56 VBottom 2
WINDOW 3 27 56 VTop 2
SYMATTR InstName R5
SYMATTR Value 33
SYMBOL Misc\\EuropeanCap 864 -2208 M0
SYMATTR InstName C7
SYMATTR Value 2µ2
SYMATTR SpiceLine V=400 Irms=1 Lser=0
SYMBOL voltage -464 -2288 R90
WINDOW 3 -46 -119 VRight 2
WINDOW 123 0 0 Left 2
WINDOW 39 0 0 Left 2
WINDOW 0 5 11 Left 2
SYMATTR Value PULSE(0 12 0 10n 10n 2u 5u)
SYMATTR InstName V1
SYMBOL Misc\\EuropeanCap 208 -3040 R0
SYMATTR InstName C8
SYMATTR Value 100µ
SYMATTR SpiceLine V=400 Irms=1 Rser=.32 Lser=0
SYMBOL npn3 576 -2864 R0
SYMATTR InstName Q1
SYMATTR Value 2N3904
SYMBOL Misc\\EuropeanResistor 464 -2832 M90
WINDOW 0 5 56 VBottom 2
WINDOW 3 27 56 VTop 2
SYMATTR InstName R6
SYMATTR Value 1k
SYMBOL npn3 1008 -2816 R0
SYMATTR InstName Q2
SYMATTR Value 2N3904
SYMBOL pnp2 1008 -2912 M180
SYMATTR InstName Q3
SYMATTR Value 2N3906
SYMBOL voltage -16 -3632 M0
WINDOW 0 -21 128 Left 2
WINDOW 3 -134 119 Invisible 2
WINDOW 123 0 0 Left 2
SYMATTR InstName energize1
SYMATTR Value PULSE(0 4.8 0 {digital_trantime} {digital_trantime} {mosfet_gate_energized_time} {period} 1000)
SYMATTR SpiceLine Rser=0
SYMBOL npn3 304 -2912 R0
SYMATTR InstName Q4
SYMATTR Value 2N3904
SYMBOL Misc\\EuropeanResistor 192 -2880 M90
WINDOW 0 5 56 VBottom 2
WINDOW 3 27 56 VTop 2
SYMATTR InstName R7
SYMATTR Value 1k
SYMBOL pnp2 768 -2832 M180
SYMATTR InstName Q5
SYMATTR Value 2N3906
SYMBOL Misc\\EuropeanResistor 816 -2976 M180
WINDOW 0 31 76 Left 2
WINDOW 3 31 40 Left 2
SYMATTR InstName R8
SYMATTR Value 1k
SYMBOL Misc\\EuropeanResistor 656 -2896 M90
WINDOW 0 5 56 VBottom 2
WINDOW 3 27 56 VTop 2
SYMATTR InstName R9
SYMATTR Value 470
SYMBOL Misc\\EuropeanCap 752 -3072 R0
SYMATTR InstName C9
SYMATTR Value 10n
SYMATTR SpiceLine V=400 Irms=1 Rser=.32 Lser=0
SYMBOL Misc\\EuropeanResistor 416 -2640 M180
WINDOW 0 31 76 Left 2
WINDOW 3 31 40 Left 2
SYMATTR InstName R10
SYMATTR Value 1k
SYMBOL Misc\\EuropeanCap 352 -2736 R0
SYMATTR InstName C10
SYMATTR Value 10n
SYMATTR SpiceLine V=400 Irms=1 Rser=.32 Lser=0
SYMBOL Misc\\EuropeanResistor 1008 -2752 M270
WINDOW 0 27 56 VTop 2
WINDOW 3 5 56 VBottom 2
SYMATTR InstName R11
SYMATTR Value 470
SYMBOL Misc\\EuropeanResistor 896 -2976 M90
WINDOW 0 5 56 VBottom 2
WINDOW 3 27 56 VTop 2
SYMATTR InstName R12
SYMATTR Value 470
SYMBOL Misc\\EuropeanResistor 352 -2976 M180
WINDOW 0 31 76 Left 2
WINDOW 3 31 40 Left 2
SYMATTR InstName R13
SYMATTR Value 10k
SYMBOL Misc\\EuropeanResistor 624 -2976 M180
WINDOW 0 31 76 Left 2
WINDOW 3 31 40 Left 2
SYMATTR InstName R14
SYMATTR Value 10k
SYMBOL Misc\\EuropeanResistor 816 -2640 M180
WINDOW 0 31 76 Left 2
WINDOW 3 31 40 Left 2
SYMATTR InstName R15
SYMATTR Value 10k
SYMBOL Misc\\EuropeanCap 208 -3648 R0
SYMATTR InstName C11
SYMATTR Value 100µ
SYMATTR SpiceLine V=400 Irms=1 Rser=.32 Lser=0
SYMBOL npn3 576 -3472 R0
SYMATTR InstName Q6
SYMATTR Value 2N3904
SYMBOL Misc\\EuropeanResistor 464 -3440 M90
WINDOW 0 5 56 VBottom 2
WINDOW 3 27 56 VTop 2
SYMATTR InstName R16
SYMATTR Value 1k
SYMBOL npn3 1008 -3424 R0
SYMATTR InstName Q7
SYMATTR Value 2N3904
SYMBOL pnp2 1008 -3520 M180
SYMATTR InstName Q8
SYMATTR Value 2N3906
SYMBOL Misc\\EuropeanResistor 1136 -3232 M180
WINDOW 0 31 76 Left 2
WINDOW 3 31 40 Left 2
SYMATTR InstName R17
SYMATTR Value 20Meg
SYMBOL npn3 304 -3520 R0
SYMATTR InstName Q9
SYMATTR Value 2N3904
SYMBOL Misc\\EuropeanResistor 192 -3488 M90
WINDOW 0 5 56 VBottom 2
WINDOW 3 27 56 VTop 2
SYMATTR InstName R18
SYMATTR Value 1k
SYMBOL pnp2 768 -3440 M180
SYMATTR InstName Q10
SYMATTR Value 2N3906
SYMBOL Misc\\EuropeanResistor 816 -3584 M180
WINDOW 0 31 76 Left 2
WINDOW 3 31 40 Left 2
SYMATTR InstName R19
SYMATTR Value 1k
SYMBOL Misc\\EuropeanResistor 656 -3504 M90
WINDOW 0 5 56 VBottom 2
WINDOW 3 27 56 VTop 2
SYMATTR InstName R20
SYMATTR Value 470
SYMBOL Misc\\EuropeanCap 752 -3680 R0
SYMATTR InstName C12
SYMATTR Value 10n
SYMATTR SpiceLine V=400 Irms=1 Rser=.32 Lser=0
SYMBOL Misc\\EuropeanResistor 416 -3248 M180
WINDOW 0 31 76 Left 2
WINDOW 3 31 40 Left 2
SYMATTR InstName R21
SYMATTR Value 1k
SYMBOL Misc\\EuropeanCap 352 -3344 R0
SYMATTR InstName C13
SYMATTR Value 10n
SYMATTR SpiceLine V=400 Irms=1 Rser=.32 Lser=0
SYMBOL Misc\\EuropeanResistor 1008 -3360 M270
WINDOW 0 27 56 VTop 2
WINDOW 3 5 56 VBottom 2
SYMATTR InstName R22
SYMATTR Value 470
SYMBOL Misc\\EuropeanResistor 896 -3584 M90
WINDOW 0 5 56 VBottom 2
WINDOW 3 27 56 VTop 2
SYMATTR InstName R23
SYMATTR Value 470
SYMBOL Misc\\EuropeanResistor 352 -3584 M180
WINDOW 0 31 76 Left 2
WINDOW 3 31 40 Left 2
SYMATTR InstName R24
SYMATTR Value 10k
SYMBOL Misc\\EuropeanResistor 624 -3584 M180
WINDOW 0 31 76 Left 2
WINDOW 3 31 40 Left 2
SYMATTR InstName R25
SYMATTR Value 10k
SYMBOL Misc\\EuropeanResistor 816 -3248 M180
WINDOW 0 31 76 Left 2
WINDOW 3 31 40 Left 2
SYMATTR InstName R26
SYMATTR Value 10k
SYMBOL voltage -16 -3456 M0
WINDOW 0 -21 128 Left 2
WINDOW 3 -134 119 Invisible 2
WINDOW 123 0 0 Left 2
SYMATTR InstName energize2
SYMATTR Value PULSE(0 4.8 {period/2-shootthru_prevent_delay} {digital_trantime} {digital_trantime} {mosfet_gate_energized_time} {period} 1000)
SYMATTR SpiceLine Rser=0
SYMBOL voltage 16 -2800 M0
WINDOW 0 -21 128 Left 2
WINDOW 3 -134 119 Invisible 2
WINDOW 123 0 0 Left 2
SYMATTR InstName energize3
SYMATTR Value PULSE(0 4.8 {period-shootthru_prevent_delay} {digital_trantime} {digital_trantime} {mosfet_gate_energized_time} {period} 1000)
SYMATTR SpiceLine Rser=0
SYMBOL voltage 16 -3024 M0
WINDOW 0 -21 128 Left 2
WINDOW 3 -134 119 Invisible 2
WINDOW 123 0 0 Left 2
SYMATTR InstName energize4
SYMATTR Value PULSE(0 4.8 {period/2} {digital_trantime} {digital_trantime} {mosfet_gate_energized_time} {period} 1000)
SYMATTR SpiceLine Rser=0
SYMBOL Misc\\EuropeanResistor 1136 -2624 M180
WINDOW 0 31 76 Left 2
WINDOW 3 31 40 Left 2
SYMATTR InstName R27
SYMATTR Value 20Meg
TEXT -536 -2552 Left 2 !.lib NE5532.sub
TEXT -544 -2520 Left 2 !.lib LM318.sub
TEXT -480 -2744 Left 2 !.include ir2110.sub
TEXT 376 -2576 Left 2 !K2 L3 L5 1.0
TEXT -390 -1996 Left 2 !.tran .1
TEXT -136 -3240 Left 2 !.param period                              = 2e-3\n.param digital_trantime                 = 1e-9\n.param mosfet_gate_pulse_time  = 1e-6\n.param shootthru_prevent_delay =1e-7\n.param mosfet_gate_energized_time=mosfet_gate_pulse_time+shootthru_prevent_delay*2
