Version 4
SHEET 1 6068 1612
WIRE 3264 -3088 2320 -3088
WIRE 3568 -3088 3264 -3088
WIRE 2528 -3056 2512 -3056
WIRE 2624 -3056 2592 -3056
WIRE 2704 -3056 2624 -3056
WIRE 2784 -3056 2752 -3056
WIRE 2880 -3056 2848 -3056
WIRE 2928 -3056 2880 -3056
WIRE 3056 -3056 2928 -3056
WIRE 3120 -3056 3056 -3056
WIRE 3216 -3056 3200 -3056
WIRE 2592 -3040 2592 -3056
WIRE 2624 -3040 2624 -3056
WIRE 2640 -3040 2624 -3040
WIRE 3184 -3024 3120 -3024
WIRE 2752 -3008 2752 -3056
WIRE 2784 -3008 2752 -3008
WIRE 2864 -3008 2848 -3008
WIRE 2928 -3008 2928 -3056
WIRE 2944 -3008 2928 -3008
WIRE 3040 -3008 3024 -3008
WIRE 3056 -3008 3056 -3056
WIRE 3152 -3008 3136 -3008
WIRE 2352 -2992 2336 -2992
WIRE 2704 -2992 2704 -3056
WIRE 2752 -2992 2752 -3008
WIRE 3280 -2976 3264 -2976
WIRE 3376 -2976 3360 -2976
WIRE 3392 -2976 3376 -2976
WIRE 3488 -2976 3472 -2976
WIRE 2320 -2960 2320 -3088
WIRE 2352 -2960 2320 -2960
WIRE 2960 -2960 2944 -2960
WIRE 3024 -2960 3024 -2976
WIRE 3024 -2960 3008 -2960
WIRE 3072 -2960 3056 -2960
WIRE 3136 -2960 3136 -2976
WIRE 3136 -2960 3120 -2960
WIRE 3264 -2960 3264 -2976
WIRE 2944 -2928 2944 -2960
WIRE 3024 -2928 3024 -2960
WIRE 3056 -2928 3056 -2960
WIRE 3136 -2928 3136 -2960
WIRE 3040 -2912 3040 -3008
WIRE 3152 -2912 3152 -3008
WIRE 3184 -2912 3184 -3024
WIRE 3568 -2912 3568 -3088
WIRE 2752 -2896 2752 -2912
WIRE 2784 -2896 2752 -2896
WIRE 2864 -2896 2864 -3008
WIRE 2864 -2896 2848 -2896
WIRE 2928 -2896 2928 -3008
WIRE 3488 -2896 3488 -2976
WIRE 3520 -2896 3488 -2896
WIRE 2240 -2864 2192 -2864
WIRE 2704 -2864 2704 -2912
WIRE 2704 -2864 2560 -2864
WIRE 3376 -2864 3376 -2976
WIRE 3392 -2864 3376 -2864
WIRE 2752 -2848 2752 -2896
WIRE 2784 -2848 2752 -2848
WIRE 2880 -2848 2880 -3056
WIRE 2880 -2848 2848 -2848
WIRE 3488 -2848 3488 -2896
WIRE 3488 -2848 3456 -2848
WIRE 3520 -2848 3504 -2848
WIRE 2192 -2832 2192 -2864
WIRE 2320 -2832 2320 -2848
WIRE 2352 -2832 2320 -2832
WIRE 2592 -2832 2560 -2832
WIRE 2624 -2832 2592 -2832
WIRE 3216 -2832 3216 -3056
WIRE 3392 -2832 3216 -2832
WIRE 3504 -2832 3504 -2848
WIRE 2592 -2816 2592 -2832
WIRE 2864 -2816 2864 -2896
WIRE 2928 -2816 2928 -2832
WIRE 2928 -2816 2864 -2816
WIRE 3040 -2816 3040 -2832
WIRE 3040 -2816 2928 -2816
WIRE 3152 -2816 3152 -2832
WIRE 3152 -2816 3040 -2816
WIRE 3184 -2816 3184 -2832
WIRE 3184 -2816 3152 -2816
WIRE 3216 -2816 3216 -2832
WIRE 2320 -2800 2320 -2832
WIRE 2704 -2784 2704 -2864
WIRE 2928 -2784 2928 -2816
WIRE 2592 -2736 2592 -2752
WIRE 2592 -2736 2560 -2736
WIRE 2592 -2720 2592 -2736
WIRE 2320 -2704 2320 -2736
WIRE 2352 -2704 2320 -2704
WIRE 2656 -2704 2560 -2704
WIRE 3568 -2640 3568 -2832
FLAG 2512 -3056 0
FLAG 3024 -2976 0
FLAG 3136 -2976 0
FLAG 2592 -2720 0
FLAG 2320 -2704 0
FLAG 2320 -2848 VDD
IOPIN 2320 -2848 BiDir
FLAG 2704 -2688 0
FLAG 2336 -2992 0
FLAG 2656 -2880 0
FLAG 2656 -2960 VDD
IOPIN 2656 -2960 BiDir
FLAG 2592 -2880 0
FLAG 2624 -2832 +
IOPIN 2624 -2832 BiDir
FLAG 2640 -3040 +
IOPIN 2640 -3040 BiDir
FLAG 3424 -2880 +op
IOPIN 3424 -2880 BiDir
FLAG 3424 -2816 -op
IOPIN 3424 -2816 BiDir
FLAG 2192 -2832 0
FLAG 2240 -2944 +op
IOPIN 2240 -2944 BiDir
FLAG 2240 -2784 -op
IOPIN 2240 -2784 BiDir
FLAG 3264 -2880 0
FLAG 3504 -2832 0
FLAG 3776 -2736 0
FLAG 3264 -3008 0
FLAG 2928 -2784 0
SYMBOL ind2 2768 -2896 R180
WINDOW 0 36 80 Invisible 2
WINDOW 3 -49 57 Left 2
SYMATTR InstName L2
SYMATTR Value {sec_I}
SYMATTR SpiceLine Rser=.42
SYMATTR Type ind
SYMBOL diode 2784 -3040 R270
WINDOW 0 32 32 Invisible 2
WINDOW 3 0 32 Invisible 2
SYMATTR InstName D1
SYMATTR Value RFUH60TS6D
SYMBOL Misc\\EuropeanResistor 3168 -2928 M0
WINDOW 0 31 40 Invisible 2
WINDOW 3 6 61 Left 2
SYMATTR InstName R2
SYMATTR Value 400
SYMBOL ind2 2688 -2896 M180
WINDOW 0 36 80 Invisible 2
WINDOW 3 -8 109 Left 2
SYMATTR InstName L3
SYMATTR Value {pri_I}
SYMATTR SpiceLine Rser=.0003
SYMATTR Type ind
SYMBOL Misc\\EuropeanCap 2528 -3072 M90
WINDOW 0 0 32 Invisible 2
WINDOW 3 -9 69 VTop 2
SYMATTR InstName C3
SYMATTR Value 3900µ
SYMATTR SpiceLine Rser=.005
SYMBOL sw 3040 -3008 M270
WINDOW 0 71 33 Invisible 2
SYMATTR InstName S3
SYMATTR SpiceModel SWI
SYMATTR Value ""
SYMBOL voltage 3040 -2928 R0
WINDOW 123 0 0 Left 2
WINDOW 0 24 16 Invisible 2
WINDOW 3 -14 57 Left 2
SYMATTR InstName V8
SYMATTR Value 402
SYMATTR SpiceLine Rser=0
SYMBOL voltage 2928 -2928 M90
WINDOW 0 32 8 Invisible 2
WINDOW 3 61 -91 Invisible 2
WINDOW 123 0 0 Left 2
SYMATTR InstName V9
SYMATTR Value PULSE(0 400 0 0 0 10u 1 1)
SYMATTR SpiceLine Rser=0
SYMBOL sw 3152 -3008 M270
WINDOW 0 13 4 Invisible 2
SYMATTR InstName S4
SYMATTR SpiceModel SWI
SYMATTR Value ""
SYMBOL voltage 3040 -2928 M90
WINDOW 0 32 8 Invisible 2
WINDOW 3 64 -82 Invisible 2
WINDOW 123 0 0 Left 2
SYMATTR InstName V10
SYMATTR Value PULSE(0 400 0 0 0 1u 500u)
SYMATTR SpiceLine Rser=0
SYMBOL IR2110 2448 -2848 R0
WINDOW 0 16 -157 Center 2
WINDOW 3 6 64 Center 2
SYMATTR InstName U1
SYMBOL Misc\\EuropeanCap 2576 -2816 R0
WINDOW 0 24 4 Invisible 2
SYMATTR InstName C18
SYMATTR Value 2µ2
SYMATTR SpiceLine V=400 Irms=1 Lser=0
SYMBOL Misc\\EuropeanCap 2336 -2800 M0
WINDOW 0 24 4 Invisible 2
WINDOW 3 -14 7 Left 2
SYMATTR InstName C19
SYMATTR Value 10µ
SYMATTR SpiceLine V=400 Irms=1 Lser=0
SYMBOL voltage 2656 -2976 R0
WINDOW 39 0 0 Left 2
WINDOW 0 24 16 Invisible 2
WINDOW 3 24 96 Invisible 2
SYMATTR InstName V7
SYMATTR Value 5
SYMBOL nmos 2656 -2784 R0
WINDOW 0 -21 44 Invisible 2
WINDOW 3 -12 -5 Invisible 2
SYMATTR InstName M1
SYMATTR Value BSZ22DN20NS3
SYMBOL voltage 2592 -2976 R0
WINDOW 0 24 16 Invisible 2
WINDOW 3 -10 56 Left 2
SYMATTR InstName V6
SYMATTR Value 15
SYMATTR SpiceLine Rser=0
SYMBOL Misc\\EuropeanResistor 2576 -2944 M180
WINDOW 0 31 76 Invisible 2
WINDOW 3 31 40 Left 2
SYMATTR InstName R6
SYMATTR Value .05
SYMBOL Opamps\\opamp2 3424 -2912 R0
WINDOW 3 -32 63 Left 2
SYMATTR Value lm318
SYMATTR InstName U3
SYMBOL voltage 2240 -2880 R0
WINDOW 0 24 16 Invisible 2
WINDOW 3 -10 56 Left 2
SYMATTR InstName V2
SYMATTR Value 15
SYMATTR SpiceLine Rser=0
SYMBOL voltage 2240 -2960 R0
WINDOW 0 24 16 Invisible 2
WINDOW 3 -10 56 Left 2
SYMATTR InstName V1
SYMATTR Value 15
SYMATTR SpiceLine Rser=0
SYMBOL Misc\\EuropeanResistor 3216 -3040 M270
WINDOW 0 27 56 VTop 2
WINDOW 3 5 56 VBottom 2
SYMATTR InstName R3
SYMATTR Value 15.9Meg
SYMBOL Misc\\EuropeanResistor 3376 -2960 M270
WINDOW 0 27 56 VTop 2
WINDOW 3 5 56 VBottom 2
SYMATTR InstName R4
SYMATTR Value 1k
SYMBOL Misc\\EuropeanResistor 3488 -2960 M270
WINDOW 0 27 56 VTop 2
WINDOW 3 5 56 VBottom 2
SYMATTR InstName R5
SYMATTR Value 1Meg
SYMBOL voltage 3264 -2976 R0
WINDOW 0 24 16 Invisible 2
WINDOW 3 -10 56 Left 2
WINDOW 123 0 0 Left 2
SYMATTR InstName V3
SYMATTR Value 2.5
SYMATTR SpiceLine Rser=0
SYMBOL Misc\\EuropeanResistor 3232 -2832 M0
SYMATTR InstName R7
SYMATTR Value 100k
SYMBOL sw 3568 -2928 R0
WINDOW 0 13 4 Invisible 2
SYMATTR InstName S2
SYMATTR SpiceModel SW2
SYMATTR Value ""
SYMBOL voltage 3776 -2832 M0
WINDOW 0 25 56 Right 2
WINDOW 3 -134 119 Invisible 2
WINDOW 123 0 0 Left 2
SYMATTR InstName charge
SYMATTR Value PULSE(0 5 0 10n 10n {charge_pulse_width*0.95} {1/freq})
SYMATTR SpiceLine Rser=0
SYMBOL Misc\\EuropeanResistor 3248 -2992 M180
WINDOW 0 31 76 Left 2
WINDOW 3 31 40 Left 2
SYMATTR InstName R1
SYMATTR Value 33k
SYMBOL Misc\\EuropeanCap 2912 -2896 R0
WINDOW 0 24 4 Invisible 2
WINDOW 3 -30 33 Left 2
SYMATTR InstName C1
SYMATTR Value 75µ
SYMATTR SpiceLine Rser=.0008
SYMBOL Misc\\EuropeanResistor 3168 -2816 M180
WINDOW 0 31 76 Left 2
WINDOW 3 31 40 Left 2
SYMATTR InstName R8
SYMATTR Value 160k
SYMBOL diode 2784 -2832 R270
WINDOW 0 32 32 Invisible 2
WINDOW 3 0 32 Invisible 2
SYMATTR InstName D2
SYMATTR Value RFUH60TS6D
SYMBOL diode 2848 -2880 M270
WINDOW 0 32 32 Invisible 2
WINDOW 3 0 32 Invisible 2
SYMATTR InstName D3
SYMATTR Value RFUH60TS6D
SYMBOL diode 2848 -2992 M270
WINDOW 0 32 32 Invisible 2
WINDOW 3 0 32 Invisible 2
SYMATTR InstName D4
SYMATTR Value RFUH60TS6D
TEXT 2344 -2624 Left 2 !.param freq                500k\n.param pulse_width     0.6u\n.param pri_I               40u\n.param sec_I              60m
TEXT 3000 -2800 Left 2 !.tran 5 startup
TEXT 2688 -3072 Left 2 !K3 L3 L2 1.0
TEXT 2384 -2896 Left 2 !.include ir2110.sub
TEXT 2696 -2560 Left 2 !.model SWI SW(Ron=1n Roff=1000G Vt=0.5 Vh=.4)
TEXT 3264 -2848 Left 2 !.lib LM318.sub
TEXT 2688 -2584 Left 2 !.model SW2 SW(Ron=1n Roff=1000G Vt=0.0 Vh=1u)
TEXT 2696 -2600 Left 2 !.param charge_pulse_width     1.u
