Version 4
SHEET 1 6068 1612
WIRE 2768 -3072 2752 -3072
WIRE 2816 -3072 2768 -3072
WIRE 2896 -3072 2880 -3072
WIRE 2896 -3056 2896 -3072
WIRE 2288 -2992 2272 -2992
WIRE 2768 -2992 2768 -3072
WIRE 2832 -2992 2816 -2992
WIRE 2944 -2992 2896 -2992
WIRE 3072 -2992 2944 -2992
WIRE 2288 -2960 2240 -2960
WIRE 3072 -2960 3072 -2992
WIRE 3088 -2960 3072 -2960
WIRE 3216 -2960 3168 -2960
WIRE 2944 -2944 2944 -2992
WIRE 2976 -2944 2944 -2944
WIRE 3072 -2944 3056 -2944
WIRE 2816 -2928 2816 -2992
WIRE 2944 -2928 2944 -2944
WIRE 3216 -2928 3216 -2960
WIRE 3104 -2912 3088 -2912
WIRE 3168 -2912 3168 -2928
WIRE 3168 -2912 3152 -2912
WIRE 2992 -2896 2976 -2896
WIRE 3056 -2896 3056 -2912
WIRE 3056 -2896 3040 -2896
WIRE 2768 -2864 2768 -2912
WIRE 2768 -2864 2496 -2864
WIRE 2976 -2864 2976 -2896
WIRE 3056 -2864 3056 -2896
WIRE 3088 -2864 3088 -2912
WIRE 3168 -2864 3168 -2912
WIRE 3072 -2848 3072 -2944
WIRE 2256 -2832 2240 -2832
WIRE 2288 -2832 2256 -2832
WIRE 2528 -2832 2496 -2832
WIRE 2608 -2832 2528 -2832
WIRE 2528 -2816 2528 -2832
WIRE 2256 -2800 2256 -2832
WIRE 2768 -2784 2768 -2864
WIRE 2816 -2752 2816 -2848
WIRE 2944 -2752 2944 -2864
WIRE 2944 -2752 2816 -2752
WIRE 3072 -2752 3072 -2768
WIRE 3072 -2752 2944 -2752
WIRE 3216 -2752 3216 -2848
WIRE 3216 -2752 3072 -2752
WIRE 2528 -2736 2528 -2752
WIRE 2528 -2736 2496 -2736
WIRE 2816 -2736 2816 -2752
WIRE 2528 -2720 2528 -2736
WIRE 2256 -2704 2256 -2736
WIRE 2288 -2704 2256 -2704
WIRE 2720 -2704 2496 -2704
WIRE 2256 -2688 2256 -2704
WIRE 2768 -2672 2768 -2688
FLAG 2816 -2736 0
FLAG 2896 -3056 0
FLAG 2752 -3072 +2
IOPIN 2752 -3072 BiDir
FLAG 2240 -2880 0
FLAG 3056 -2912 0
FLAG 3168 -2928 0
FLAG 2528 -2720 0
FLAG 2256 -2688 0
FLAG 2240 -2832 VDD_logic
IOPIN 2240 -2832 BiDir
FLAG 2768 -2672 0
FLAG 2272 -2992 0
FLAG 2672 -2912 0
FLAG 2672 -2992 VDD_logic
IOPIN 2672 -2992 BiDir
FLAG 2560 -3056 +2
IOPIN 2560 -3056 BiDir
FLAG 2560 -2896 0
FLAG 2608 -2832 +2
IOPIN 2608 -2832 BiDir
SYMBOL ind2 2800 -2832 M180
WINDOW 0 36 80 Left 2
WINDOW 3 36 40 Left 2
SYMATTR InstName L2
SYMATTR Value {sec_I}
SYMATTR SpiceLine Rser=.42
SYMATTR Type ind
SYMBOL diode 2832 -2976 R270
WINDOW 0 32 32 VTop 2
WINDOW 3 0 32 VBottom 2
SYMATTR InstName D1
SYMATTR Value RFUH60TS6D
SYMBOL Misc\\EuropeanCap 2928 -2928 R0
SYMATTR InstName C2
SYMATTR Value 75µ
SYMBOL Misc\\EuropeanResistor 3232 -2944 M0
SYMATTR InstName R2
SYMATTR Value 400
SYMBOL ind2 2784 -2896 R180
WINDOW 0 36 80 Left 2
WINDOW 3 36 40 Left 2
SYMATTR InstName L3
SYMATTR Value {pri_I}
SYMATTR SpiceLine Rser=.0003
SYMATTR Type ind
SYMBOL Misc\\EuropeanCap 2880 -3088 R90
WINDOW 0 0 32 VBottom 2
WINDOW 3 32 32 VTop 2
SYMATTR InstName C3
SYMATTR Value 3900µ
SYMATTR SpiceLine Rser=.005
SYMBOL voltage 2240 -2976 M0
WINDOW 0 -42 58 Left 2
WINDOW 3 -134 119 Invisible 2
WINDOW 123 0 0 Left 2
SYMATTR InstName sigma_delta3
SYMATTR Value PULSE(0 5 0 10n 10n {pulse_width*0.95} {1/freq})
SYMATTR SpiceLine Rser=0
SYMBOL sw 3072 -2944 M270
WINDOW 0 71 33 VRight 2
WINDOW 38 46 22 VRight 2
SYMATTR InstName S3
SYMATTR SpiceModel SWI
SYMATTR Value ""
SYMBOL voltage 3072 -2864 R0
SYMATTR SpiceLine Rser=0
SYMATTR InstName V8
SYMATTR Value 400
SYMBOL voltage 2960 -2864 M90
WINDOW 0 32 8 VRight 2
WINDOW 3 61 -91 VRight 2
WINDOW 123 0 0 Left 2
SYMATTR InstName V9
SYMATTR Value PULSE(0 400 0 0 0 1n 1 1)
SYMATTR SpiceLine Rser=0
SYMBOL sw 3184 -2960 M270
WINDOW 0 71 33 VRight 2
WINDOW 38 46 22 VRight 2
SYMATTR InstName S4
SYMATTR SpiceModel SWI
SYMATTR Value ""
SYMBOL voltage 3072 -2864 M90
WINDOW 0 32 8 VRight 2
WINDOW 3 64 -82 VRight 2
WINDOW 123 0 0 Left 2
SYMATTR InstName V10
SYMATTR Value PULSE(0 400 0 0 0 1u 500u)
SYMATTR SpiceLine Rser=0
SYMBOL IR2110 2384 -2848 R0
WINDOW 0 16 -157 Center 2
SYMATTR InstName U1
SYMBOL Misc\\EuropeanCap 2512 -2816 R0
SYMATTR InstName C18
SYMATTR Value 2µ2
SYMATTR SpiceLine V=400 Irms=1 Lser=0
SYMBOL Misc\\EuropeanCap 2272 -2800 M0
SYMATTR InstName C19
SYMATTR Value 10µ
SYMATTR SpiceLine V=400 Irms=1 Lser=0
SYMBOL voltage 2672 -3008 R0
WINDOW 39 0 0 Left 2
WINDOW 0 24 16 Invisible 2
WINDOW 3 24 96 Invisible 2
SYMATTR InstName V7
SYMATTR Value 5
SYMBOL nmos 2720 -2784 R0
WINDOW 0 -21 44 Left 2
WINDOW 3 -12 -5 Left 2
SYMATTR InstName M1
SYMATTR Value IRF740
SYMBOL voltage 2560 -2992 R0
WINDOW 123 0 0 Left 2
WINDOW 39 24 36 Left 2
SYMATTR SpiceLine Rser=0
SYMATTR InstName V6
SYMATTR Value 15
SYMBOL Misc\\EuropeanResistor 2544 -2960 M180
WINDOW 0 31 76 Left 2
WINDOW 3 31 40 Left 2
SYMATTR InstName R6
SYMATTR Value .1
TEXT 2784 -2704 Left 2 !;.step param freq 10k,100k,10k\n.param freq             =10k\n;.step param pulse_width = 50n,500n,50n\n.param pulse_width = 1100n\n.param t_switch_time = 50n\n.param pri_I 40uH\n.param sec_I 60mH
TEXT 2672 -2680 Left 2 !.tran .1
TEXT 2792 -2976 Left 2 !K3 L3 L2 1.0
TEXT 2784 -2560 Left 2 !.model SWI SW(Ron=1n Roff=1000G Vt=0.5 Vh=.4)
TEXT 2504 -2688 Left 2 !.include ir2110.sub
TEXT 2504 -2664 Left 2 !.lib NE5532.sub
TEXT 2504 -2640 Left 2 !.lib LM318.sub
TEXT 2656 -2640 Left 2 !.inc CD4000.lib
TEXT 2832 -2728 Left 2 !.model SWI SW(Ron=1n Roff=1000G Vt=0.5 Vh=.4)
