Version 4
SHEET 1 6068 1612
WIRE 2720 -3072 2656 -3072
WIRE 2768 -3072 2720 -3072
WIRE 2816 -3056 2800 -3056
WIRE 2896 -3056 2880 -3056
WIRE 3024 -3056 2896 -3056
WIRE 3024 -3024 3024 -3056
WIRE 3040 -3024 3024 -3024
WIRE 3152 -3024 3120 -3024
WIRE 2896 -3008 2896 -3056
WIRE 2928 -3008 2896 -3008
WIRE 3024 -3008 3008 -3008
WIRE 2352 -2992 2336 -2992
WIRE 2720 -2992 2720 -3008
WIRE 2768 -2992 2768 -3072
WIRE 2800 -2992 2800 -3056
WIRE 2896 -2992 2896 -3008
WIRE 3152 -2992 3152 -3024
WIRE 3056 -2976 3040 -2976
WIRE 3120 -2976 3120 -2992
WIRE 3120 -2976 3104 -2976
WIRE 2352 -2960 2304 -2960
WIRE 2944 -2960 2928 -2960
WIRE 3008 -2960 3008 -2976
WIRE 3008 -2960 2992 -2960
WIRE 2928 -2928 2928 -2960
WIRE 3008 -2928 3008 -2960
WIRE 3040 -2928 3040 -2976
WIRE 3120 -2928 3120 -2976
WIRE 3024 -2912 3024 -3008
WIRE 2768 -2864 2768 -2912
WIRE 2768 -2864 2560 -2864
WIRE 2320 -2832 2320 -2848
WIRE 2352 -2832 2320 -2832
WIRE 2592 -2832 2560 -2832
WIRE 2624 -2832 2592 -2832
WIRE 2592 -2816 2592 -2832
WIRE 2800 -2816 2800 -2912
WIRE 2896 -2816 2896 -2928
WIRE 2896 -2816 2800 -2816
WIRE 3024 -2816 3024 -2832
WIRE 3024 -2816 2896 -2816
WIRE 3152 -2816 3152 -2912
WIRE 3152 -2816 3024 -2816
WIRE 2320 -2800 2320 -2832
WIRE 2800 -2800 2800 -2816
WIRE 2768 -2784 2768 -2864
WIRE 2592 -2736 2592 -2752
WIRE 2592 -2736 2560 -2736
WIRE 2592 -2720 2592 -2736
WIRE 2320 -2704 2320 -2736
WIRE 2352 -2704 2320 -2704
WIRE 2720 -2704 2560 -2704
WIRE 2320 -2688 2320 -2704
WIRE 2768 -2672 2768 -2688
FLAG 2800 -2800 0
FLAG 2720 -2992 0
FLAG 2656 -3072 +2
IOPIN 2656 -3072 BiDir
FLAG 2304 -2880 0
FLAG 3008 -2976 0
FLAG 3120 -2992 0
FLAG 2592 -2720 0
FLAG 2320 -2688 0
FLAG 2320 -2848 VDD
IOPIN 2320 -2848 BiDir
FLAG 2768 -2672 0
FLAG 2336 -2992 0
FLAG 2656 -2880 0
FLAG 2656 -2960 VDD
IOPIN 2656 -2960 BiDir
FLAG 2592 -3040 +2
IOPIN 2592 -3040 BiDir
FLAG 2592 -2880 0
FLAG 2624 -2832 +2
IOPIN 2624 -2832 BiDir
SYMBOL ind2 2784 -2896 M180
WINDOW 0 36 80 Left 2
WINDOW 3 36 40 Left 2
SYMATTR InstName L2
SYMATTR Value {sec_I}
SYMATTR SpiceLine Rser=.42
SYMATTR Type ind
SYMBOL diode 2816 -3040 R270
WINDOW 0 32 32 VTop 2
WINDOW 3 0 32 Invisible 2
SYMATTR InstName D1
SYMATTR Value RFUH60TS6D
SYMBOL Misc\\EuropeanCap 2880 -2992 R0
WINDOW 0 24 4 Invisible 2
WINDOW 3 3 58 Left 2
SYMATTR InstName C2
SYMATTR Value 75µ
SYMBOL Misc\\EuropeanResistor 3168 -3008 M0
WINDOW 0 31 40 Invisible 2
WINDOW 3 2 60 Left 2
SYMATTR InstName R2
SYMATTR Value 400
SYMBOL ind2 2784 -2896 R180
WINDOW 0 36 80 Left 2
WINDOW 3 36 40 Left 2
SYMATTR InstName L3
SYMATTR Value {pri_I}
SYMATTR SpiceLine Rser=.0003
SYMATTR Type ind
SYMBOL Misc\\EuropeanCap 2736 -3008 R180
WINDOW 0 24 64 Left 2
WINDOW 3 24 4 Left 2
SYMATTR InstName C3
SYMATTR Value 3900µ
SYMATTR SpiceLine Rser=.005
SYMBOL voltage 2304 -2976 M0
WINDOW 0 -63 59 Left 2
WINDOW 3 -134 119 Invisible 2
WINDOW 123 0 0 Left 2
SYMATTR InstName sigma_delta3
SYMATTR Value PULSE(0 5 0 10n 10n {pulse_width*0.95} {1/freq})
SYMATTR SpiceLine Rser=0
SYMBOL sw 3024 -3008 M270
WINDOW 0 71 33 Invisible 2
SYMATTR InstName S3
SYMATTR SpiceModel SWI
SYMATTR Value ""
SYMBOL voltage 3024 -2928 R0
SYMATTR SpiceLine Rser=0
SYMATTR InstName V8
SYMATTR Value 400
SYMBOL voltage 2912 -2928 M90
WINDOW 0 32 8 VRight 2
WINDOW 3 61 -91 Invisible 2
WINDOW 123 0 0 Left 2
SYMATTR InstName V9
SYMATTR Value PULSE(0 400 0 0 0 1n 1 1)
SYMATTR SpiceLine Rser=0
SYMBOL sw 3136 -3024 M270
WINDOW 0 13 4 Invisible 2
SYMATTR InstName S4
SYMATTR SpiceModel SWI
SYMATTR Value ""
SYMBOL voltage 3024 -2928 M90
WINDOW 0 32 8 VRight 2
WINDOW 3 64 -82 Invisible 2
WINDOW 123 0 0 Left 2
SYMATTR InstName V10
SYMATTR Value PULSE(0 400 0 0 0 1u 500u)
SYMATTR SpiceLine Rser=0
SYMBOL IR2110 2448 -2848 R0
WINDOW 0 16 -157 Center 2
SYMATTR InstName U1
SYMBOL Misc\\EuropeanCap 2576 -2816 R0
SYMATTR InstName C18
SYMATTR Value 2µ2
SYMATTR SpiceLine V=400 Irms=1 Lser=0
SYMBOL Misc\\EuropeanCap 2336 -2800 M0
SYMATTR InstName C19
SYMATTR Value 10µ
SYMATTR SpiceLine V=400 Irms=1 Lser=0
SYMBOL voltage 2656 -2976 R0
WINDOW 39 0 0 Left 2
WINDOW 0 24 16 Invisible 2
WINDOW 3 24 96 Invisible 2
SYMATTR InstName V7
SYMATTR Value 5
SYMBOL nmos 2720 -2784 R0
WINDOW 0 -21 44 Left 2
WINDOW 3 -12 -5 Left 2
SYMATTR InstName M1
SYMATTR Value IRF740
SYMBOL voltage 2592 -2976 R0
WINDOW 3 -10 56 Left 2
SYMATTR SpiceLine Rser=0
SYMATTR InstName V6
SYMATTR Value 15
SYMBOL Misc\\EuropeanResistor 2576 -2944 M180
WINDOW 0 31 76 Left 2
WINDOW 3 31 40 Left 2
SYMATTR InstName R6
SYMATTR Value .05
TEXT 2816 -2776 Left 2 !.param freq                 10k\n.param pulse_width    1100n\n.param t_switch_time 50n\n.param pri_I              40uH\n.param sec_I            60mH
TEXT 2504 -2664 Left 2 !.tran .1
TEXT 2776 -3040 Left 2 !K3 L3 L2 1.0
TEXT 2568 -2688 Left 2 !.include ir2110.sub
TEXT 2816 -2800 Left 2 !.model SWI SW(Ron=1n Roff=1000G Vt=0.5 Vh=.4)
