Version 4
SHEET 1 6068 1612
WIRE 176 -2720 160 -2720
WIRE 160 -2704 160 -2720
WIRE -304 -2656 -304 -2720
WIRE 160 -2608 160 -2624
WIRE -304 -2496 -304 -2576
WIRE 368 -2496 304 -2496
WIRE 640 -2496 368 -2496
WIRE 368 -2464 368 -2496
WIRE 640 -2432 640 -2496
WIRE -288 -2384 -336 -2384
WIRE -176 -2384 -208 -2384
WIRE 240 -2384 32 -2384
WIRE 64 -2352 32 -2352
WIRE 144 -2352 64 -2352
WIRE 64 -2336 64 -2352
WIRE 144 -2336 144 -2352
WIRE 368 -2336 368 -2368
WIRE 416 -2336 368 -2336
WIRE 576 -2336 496 -2336
WIRE 1056 -2336 1008 -2336
WIRE 1168 -2336 1056 -2336
WIRE 1264 -2336 1168 -2336
WIRE -288 -2304 -336 -2304
WIRE -208 -2304 -176 -2352
WIRE 576 -2288 576 -2336
WIRE 944 -2288 944 -2336
WIRE 1024 -2288 1008 -2288
WIRE 64 -2256 64 -2272
WIRE 64 -2256 32 -2256
WIRE 368 -2256 368 -2336
WIRE 368 -2256 64 -2256
WIRE 1168 -2256 1168 -2336
WIRE 1264 -2256 1264 -2336
WIRE -240 -2224 -272 -2224
WIRE -176 -2224 -240 -2224
WIRE 64 -2224 32 -2224
WIRE 144 -2224 144 -2272
WIRE 144 -2224 64 -2224
WIRE 160 -2224 144 -2224
WIRE 944 -2224 944 -2288
WIRE 64 -2208 64 -2224
WIRE 640 -2208 640 -2368
WIRE 640 -2208 576 -2208
WIRE -240 -2192 -240 -2224
WIRE 368 -2176 368 -2256
WIRE 640 -2144 640 -2208
WIRE 64 -2128 64 -2144
WIRE 64 -2128 32 -2128
WIRE 944 -2112 944 -2144
WIRE 1024 -2112 1024 -2288
WIRE 1024 -2112 1008 -2112
WIRE 1168 -2112 1168 -2192
WIRE 1168 -2112 1024 -2112
WIRE 1264 -2112 1264 -2176
WIRE 1264 -2112 1168 -2112
WIRE -240 -2096 -240 -2128
WIRE -176 -2096 -240 -2096
WIRE 224 -2096 32 -2096
WIRE 320 -2096 304 -2096
WIRE 1168 -2080 1168 -2112
WIRE 64 -2048 64 -2128
WIRE 368 -2048 368 -2080
WIRE 368 -2048 64 -2048
WIRE 640 -2048 640 -2080
WIRE 640 -2048 368 -2048
WIRE 944 -2048 944 -2112
WIRE 1056 -2048 1056 -2336
WIRE 1056 -2048 1008 -2048
WIRE -240 -2016 -240 -2096
WIRE 368 -2016 368 -2048
FLAG 176 -2720 +
IOPIN 176 -2720 BiDir
FLAG 160 -2608 0
FLAG 368 -2016 0
FLAG 160 -2224 VCC
FLAG -304 -2496 0
FLAG -304 -2720 VCC
FLAG -240 -2016 0
FLAG -336 -2304 0
FLAG -336 -2384 0
FLAG -272 -2224 +
IOPIN -272 -2224 BiDir
FLAG 304 -2496 +
IOPIN 304 -2496 BiDir
FLAG 1168 -2080 0
SYMBOL voltage 160 -2720 M0
WINDOW 123 0 0 Left 2
WINDOW 39 -61 27 Left 2
WINDOW 0 -54 49 Left 2
WINDOW 3 -9 55 Left 2
SYMATTR SpiceLine Rser=0
SYMATTR InstName V4
SYMATTR Value 15
SYMBOL nmos 320 -2176 R0
WINDOW 0 -21 44 Left 2
WINDOW 3 -12 -5 Left 2
SYMATTR InstName M3
SYMATTR Value IRF740
SYMBOL nmos 320 -2464 R0
WINDOW 0 -21 44 Left 2
WINDOW 3 -12 -5 Left 2
SYMATTR InstName M1
SYMATTR Value IRF740
SYMBOL Misc\\EuropeanCap 48 -2336 R0
SYMATTR InstName C1
SYMATTR Value 2µ2
SYMATTR SpiceLine V=400 Irms=1 Lser=0
SYMBOL Misc\\EuropeanCap 656 -2080 R180
WINDOW 0 24 64 Left 2
WINDOW 3 24 4 Left 2
SYMATTR InstName C2
SYMATTR Value {cap}
SYMBOL schottky 160 -2272 R180
WINDOW 0 -29 68 Left 2
WINDOW 3 -106 -4 Left 2
SYMATTR InstName D2
SYMATTR Value MURS120
SYMATTR Description Diode
SYMATTR Type diode
SYMBOL cap -256 -2192 R0
SYMATTR InstName C5
SYMATTR Value 10µf
SYMBOL IR2110 -80 -2240 R0
WINDOW 0 16 -157 Center 2
SYMATTR InstName U4
SYMBOL voltage -304 -2672 R0
WINDOW 123 0 0 Left 2
WINDOW 39 0 0 Left 2
SYMATTR InstName V9
SYMATTR Value 12
SYMBOL voltage -192 -2384 R90
WINDOW 3 -46 -119 VRight 2
WINDOW 123 0 0 Left 2
WINDOW 39 0 0 Left 2
WINDOW 0 5 11 Left 2
SYMATTR Value PULSE(0 12 .5u 10n 10n .45u 1u)
SYMATTR InstName V10
SYMBOL ind2 512 -2352 R90
WINDOW 0 4 56 VBottom 2
WINDOW 3 32 56 VTop 2
SYMATTR InstName L3
SYMATTR Value 0.1µ
SYMATTR SpiceLine Rser=.0001 Cpar=20p
SYMATTR Type ind
SYMBOL ind2 960 -2128 R180
WINDOW 0 36 80 Left 2
WINDOW 3 36 40 Left 2
SYMATTR InstName L5
SYMATTR Value 3µH
SYMATTR SpiceLine Rser=.001 Cpar=20p
SYMATTR Type ind
SYMBOL voltage -192 -2304 R90
WINDOW 3 43 -74 VRight 2
WINDOW 123 0 0 Left 2
WINDOW 39 0 0 Left 2
WINDOW 0 3 12 Left 2
SYMATTR Value PULSE(0 12 0 10n 10n .45u 1u)
SYMATTR InstName V1
SYMBOL Misc\\EuropeanResistor 224 -2400 M90
WINDOW 0 5 56 VBottom 2
WINDOW 3 27 56 VTop 2
SYMATTR InstName R1
SYMATTR Value 33
SYMBOL Misc\\EuropeanResistor 208 -2112 M90
WINDOW 0 5 56 VBottom 2
WINDOW 3 27 56 VTop 2
SYMATTR InstName R3
SYMATTR Value 33
SYMBOL Misc\\EuropeanCap 48 -2208 R0
SYMATTR InstName C3
SYMATTR Value 2µ2
SYMATTR SpiceLine V=400 Irms=1 Lser=0
SYMBOL ind2 592 -2192 R180
WINDOW 0 36 80 Left 2
WINDOW 3 36 40 Left 2
SYMATTR InstName L2
SYMATTR Value 0.9µ
SYMATTR SpiceLine Rser=.0001 Cpar=20p
SYMATTR Type ind
SYMBOL diode 944 -2320 R270
WINDOW 0 32 32 VTop 2
WINDOW 3 0 32 VBottom 2
SYMATTR InstName D6
SYMATTR Value 1N4148
SYMBOL diode 1008 -2272 M270
WINDOW 0 32 32 VTop 2
WINDOW 3 0 32 VBottom 2
SYMATTR InstName D7
SYMATTR Value 1N4148
SYMBOL diode 1008 -2096 M270
WINDOW 0 32 32 VTop 2
WINDOW 3 0 32 VBottom 2
SYMATTR InstName D8
SYMATTR Value 1N4148
SYMBOL diode 944 -2032 R270
WINDOW 0 32 32 VTop 2
WINDOW 3 0 32 VBottom 2
SYMATTR InstName D9
SYMATTR Value 1N4148
SYMBOL Misc\\EuropeanCap 1152 -2256 R0
SYMATTR InstName C4
SYMATTR Value 4µ
SYMBOL Misc\\EuropeanResistor 1280 -2272 M0
SYMATTR InstName R4
SYMATTR Value 100k
SYMBOL Misc\\EuropeanCap 656 -2368 R180
WINDOW 0 24 64 Left 2
WINDOW 3 24 4 Left 2
SYMATTR InstName C6
SYMATTR Value {cap}
TEXT -232 -2568 Left 2 !.lib NE5532.sub
TEXT -240 -2536 Left 2 !.lib LM318.sub
TEXT -184 -2648 Left 2 !.lib NE5532.sub
TEXT -192 -2616 Left 2 !.lib LM318.sub
TEXT -176 -2760 Left 2 !.include ir2110.sub
TEXT 376 -2576 Left 2 !K2 L2 L5 1.0
TEXT -390 -1996 Left 2 !.tran .1
TEXT 504 -2528 Left 2 !.param cap=16n
