Version 4
SHEET 1 6068 1612
WIRE 3152 -3088 2320 -3088
WIRE 3472 -3088 3152 -3088
WIRE 2944 -3056 2816 -3056
WIRE 3008 -3056 2944 -3056
WIRE 3104 -3056 3088 -3056
WIRE 2528 -3040 2512 -3040
WIRE 2624 -3040 2592 -3040
WIRE 2704 -3040 2624 -3040
WIRE 2816 -3040 2816 -3056
WIRE 2624 -3024 2624 -3040
WIRE 2640 -3024 2624 -3024
WIRE 2816 -3008 2816 -3040
WIRE 2832 -3008 2816 -3008
WIRE 2928 -3008 2912 -3008
WIRE 2944 -3008 2944 -3056
WIRE 3040 -3008 3024 -3008
WIRE 2352 -2992 2336 -2992
WIRE 2704 -2992 2704 -3040
WIRE 2752 -2992 2752 -3040
WIRE 3168 -2976 3152 -2976
WIRE 3264 -2976 3248 -2976
WIRE 3280 -2976 3264 -2976
WIRE 3376 -2976 3360 -2976
WIRE 2320 -2960 2320 -3088
WIRE 2352 -2960 2320 -2960
WIRE 2848 -2960 2832 -2960
WIRE 2912 -2960 2912 -2976
WIRE 2912 -2960 2896 -2960
WIRE 2960 -2960 2944 -2960
WIRE 3024 -2960 3024 -2976
WIRE 3024 -2960 3008 -2960
WIRE 3152 -2960 3152 -2976
WIRE 2832 -2928 2832 -2960
WIRE 2912 -2928 2912 -2960
WIRE 2944 -2928 2944 -2960
WIRE 3024 -2928 3024 -2960
WIRE 2928 -2912 2928 -3008
WIRE 3040 -2912 3040 -3008
WIRE 3472 -2912 3472 -3088
WIRE 2816 -2896 2816 -3008
WIRE 3376 -2896 3376 -2976
WIRE 3424 -2896 3376 -2896
WIRE 2240 -2864 2192 -2864
WIRE 2704 -2864 2704 -2912
WIRE 2704 -2864 2560 -2864
WIRE 3264 -2864 3264 -2976
WIRE 3280 -2864 3264 -2864
WIRE 3376 -2848 3376 -2896
WIRE 3376 -2848 3344 -2848
WIRE 3424 -2848 3408 -2848
WIRE 2192 -2832 2192 -2864
WIRE 2320 -2832 2320 -2848
WIRE 2352 -2832 2320 -2832
WIRE 2592 -2832 2560 -2832
WIRE 2624 -2832 2592 -2832
WIRE 3104 -2832 3104 -3056
WIRE 3280 -2832 3104 -2832
WIRE 3408 -2832 3408 -2848
WIRE 2592 -2816 2592 -2832
WIRE 2752 -2816 2752 -2912
WIRE 2816 -2816 2816 -2832
WIRE 2816 -2816 2752 -2816
WIRE 2928 -2816 2928 -2832
WIRE 2928 -2816 2816 -2816
WIRE 3040 -2816 3040 -2832
WIRE 3040 -2816 2928 -2816
WIRE 2320 -2800 2320 -2832
WIRE 2704 -2800 2704 -2864
WIRE 2752 -2800 2752 -2816
WIRE 3104 -2800 3104 -2832
WIRE 2592 -2736 2592 -2752
WIRE 2592 -2736 2560 -2736
WIRE 2592 -2720 2592 -2736
WIRE 2656 -2720 2624 -2720
WIRE 2320 -2704 2320 -2736
WIRE 2352 -2704 2320 -2704
WIRE 2624 -2704 2624 -2720
WIRE 2624 -2704 2560 -2704
FLAG 2752 -2800 0
FLAG 2512 -3040 0
FLAG 2912 -2976 0
FLAG 3024 -2976 0
FLAG 2592 -2720 0
FLAG 2320 -2704 0
FLAG 2320 -2848 VDD
IOPIN 2320 -2848 BiDir
FLAG 2704 -2704 0
FLAG 2336 -2992 0
FLAG 2656 -2880 0
FLAG 2656 -2960 VDD
IOPIN 2656 -2960 BiDir
FLAG 2592 -2880 0
FLAG 2624 -2832 +
IOPIN 2624 -2832 BiDir
FLAG 2640 -3024 +
IOPIN 2640 -3024 BiDir
FLAG 3312 -2880 +
IOPIN 3312 -2880 BiDir
FLAG 3312 -2816 -
IOPIN 3312 -2816 BiDir
FLAG 2192 -2832 0
FLAG 2240 -2944 +
IOPIN 2240 -2944 BiDir
FLAG 2240 -2784 -
IOPIN 2240 -2784 BiDir
FLAG 3152 -2880 0
FLAG 3104 -2720 0
FLAG 3408 -2832 0
FLAG 3472 -2752 0
FLAG 3152 -3008 0
SYMBOL ind2 2768 -2896 R180
WINDOW 0 36 80 Invisible 2
WINDOW 3 -16 -1 Left 2
SYMATTR InstName L2
SYMATTR Value {sec_I}
SYMATTR SpiceLine Rser=.42
SYMATTR Type ind
SYMBOL diode 2752 -3024 R270
WINDOW 0 32 32 Invisible 2
WINDOW 3 0 32 Invisible 2
SYMATTR InstName D1
SYMATTR Value RFUH60TS6D
SYMBOL Misc\\EuropeanCap 2800 -2896 R0
WINDOW 0 24 4 Invisible 2
WINDOW 3 -30 33 Left 2
SYMATTR InstName C2
SYMATTR Value 100µ
SYMBOL Misc\\EuropeanResistor 3056 -2928 M0
WINDOW 0 31 40 Invisible 2
WINDOW 3 6 61 Left 2
SYMATTR InstName R2
SYMATTR Value 400
SYMBOL ind2 2688 -2896 M180
WINDOW 0 36 80 Invisible 2
WINDOW 3 -12 0 Left 2
SYMATTR InstName L3
SYMATTR Value {pri_I}
SYMATTR SpiceLine Rser=.0003
SYMATTR Type ind
SYMBOL Misc\\EuropeanCap 2528 -3056 M90
WINDOW 0 0 32 Invisible 2
WINDOW 3 -9 69 VTop 2
SYMATTR InstName C3
SYMATTR Value 3900µ
SYMATTR SpiceLine Rser=.005
SYMBOL sw 2928 -3008 M270
WINDOW 0 71 33 Invisible 2
SYMATTR InstName S3
SYMATTR SpiceModel SWI
SYMATTR Value ""
SYMBOL voltage 2928 -2928 R0
WINDOW 123 0 0 Left 2
WINDOW 0 24 16 Invisible 2
WINDOW 3 -14 57 Left 2
SYMATTR InstName V8
SYMATTR Value 400
SYMATTR SpiceLine Rser=0
SYMBOL voltage 2816 -2928 M90
WINDOW 0 32 8 Invisible 2
WINDOW 3 61 -91 Invisible 2
WINDOW 123 0 0 Left 2
SYMATTR InstName V9
SYMATTR Value PULSE(0 400 0 0 0 1n 1 1)
SYMATTR SpiceLine Rser=0
SYMBOL sw 3040 -3008 M270
WINDOW 0 13 4 Invisible 2
SYMATTR InstName S4
SYMATTR SpiceModel SWI
SYMATTR Value ""
SYMBOL voltage 2928 -2928 M90
WINDOW 0 32 8 Invisible 2
WINDOW 3 64 -82 Invisible 2
WINDOW 123 0 0 Left 2
SYMATTR InstName V10
SYMATTR Value PULSE(0 400 0 0 0 1u 500u)
SYMATTR SpiceLine Rser=0
SYMBOL IR2110 2448 -2848 R0
WINDOW 0 16 -157 Center 2
WINDOW 3 6 64 Center 2
SYMATTR InstName U1
SYMBOL Misc\\EuropeanCap 2576 -2816 R0
WINDOW 0 24 4 Invisible 2
SYMATTR InstName C18
SYMATTR Value 2µ2
SYMATTR SpiceLine V=400 Irms=1 Lser=0
SYMBOL Misc\\EuropeanCap 2336 -2800 M0
WINDOW 0 24 4 Invisible 2
WINDOW 3 -14 7 Left 2
SYMATTR InstName C19
SYMATTR Value 10µ
SYMATTR SpiceLine V=400 Irms=1 Lser=0
SYMBOL voltage 2656 -2976 R0
WINDOW 39 0 0 Left 2
WINDOW 0 24 16 Invisible 2
WINDOW 3 24 96 Invisible 2
SYMATTR InstName V7
SYMATTR Value 5
SYMBOL nmos 2656 -2800 R0
WINDOW 0 -21 44 Invisible 2
WINDOW 3 -12 -5 Invisible 2
SYMATTR InstName M1
SYMATTR Value BSZ22DN20NS3
SYMBOL voltage 2592 -2976 R0
WINDOW 0 24 16 Invisible 2
WINDOW 3 -10 56 Left 2
SYMATTR InstName V6
SYMATTR Value 15
SYMATTR SpiceLine Rser=0
SYMBOL Misc\\EuropeanResistor 2576 -2944 M180
WINDOW 0 31 76 Invisible 2
WINDOW 3 31 40 Left 2
SYMATTR InstName R6
SYMATTR Value .05
SYMBOL Opamps\\opamp2 3312 -2912 R0
WINDOW 3 -32 63 Left 2
SYMATTR Value lm318
SYMATTR InstName U3
SYMBOL voltage 2240 -2880 R0
WINDOW 0 24 16 Invisible 2
WINDOW 3 -10 56 Left 2
SYMATTR InstName V2
SYMATTR Value 15
SYMATTR SpiceLine Rser=0
SYMBOL voltage 2240 -2960 R0
WINDOW 0 24 16 Invisible 2
WINDOW 3 -10 56 Left 2
SYMATTR InstName V1
SYMATTR Value 15
SYMATTR SpiceLine Rser=0
SYMBOL Misc\\EuropeanResistor 3104 -3040 M270
WINDOW 0 27 56 VTop 2
WINDOW 3 5 56 VBottom 2
SYMATTR InstName R3
SYMATTR Value 15.9Meg
SYMBOL Misc\\EuropeanResistor 3264 -2960 M270
WINDOW 0 27 56 VTop 2
WINDOW 3 5 56 VBottom 2
SYMATTR InstName R4
SYMATTR Value 1k
SYMBOL Misc\\EuropeanResistor 3376 -2960 M270
WINDOW 0 27 56 VTop 2
WINDOW 3 5 56 VBottom 2
SYMATTR InstName R5
SYMATTR Value 1000k
SYMBOL voltage 3152 -2976 R0
WINDOW 0 24 16 Invisible 2
WINDOW 3 -10 56 Left 2
WINDOW 123 0 0 Left 2
SYMATTR InstName V3
SYMATTR Value 2.5
SYMATTR SpiceLine Rser=0
SYMBOL Misc\\EuropeanResistor 3120 -2816 M0
SYMATTR InstName R7
SYMATTR Value 100k
SYMBOL sw 3472 -2928 R0
WINDOW 0 13 4 Invisible 2
SYMATTR InstName S2
SYMATTR SpiceModel SW2
SYMATTR Value ""
SYMBOL voltage 3472 -2848 M0
WINDOW 0 25 56 Right 2
WINDOW 3 -134 119 Invisible 2
WINDOW 123 0 0 Left 2
SYMATTR InstName charge
SYMATTR Value PULSE(0 5 0 10n 10n {charge_pulse_width*0.95} {1/freq})
SYMATTR SpiceLine Rser=0
SYMBOL Misc\\EuropeanResistor 3136 -2992 M180
WINDOW 0 31 76 Left 2
WINDOW 3 31 40 Left 2
SYMATTR InstName R1
SYMATTR Value 1k
TEXT 2736 -2768 Left 2 !.param freq                30k\n.param pulse_width     0.6u\n.param pri_I               40u\n.param sec_I              60m
TEXT 2888 -2800 Left 2 !.tran 5
TEXT 2776 -3040 Left 2 !K3 L3 L2 1.0
TEXT 2384 -2896 Left 2 !.include ir2110.sub
TEXT 2712 -2776 Left 2 !.model SWI SW(Ron=1n Roff=1000G Vt=0.5 Vh=.4)
TEXT 3152 -2848 Left 2 !.lib LM318.sub
TEXT 3120 -2720 Left 2 !.model SW2 SW(Ron=1n Roff=1000G Vt=0.0 Vh=1u)
TEXT 3136 -2752 Left 2 !.param charge_pulse_width     1.0u
