Version 4
SHEET 1 6068 1612
WIRE 3280 -2992 3264 -2992
WIRE 3392 -2992 3344 -2992
WIRE 3504 -2992 3392 -2992
WIRE 3600 -2992 3504 -2992
WIRE 3264 -2944 3264 -2992
WIRE 3280 -2944 3264 -2944
WIRE 3360 -2944 3344 -2944
WIRE 3264 -2912 3264 -2944
WIRE 3504 -2912 3504 -2992
WIRE 3600 -2912 3600 -2992
WIRE 3264 -2768 3264 -2832
WIRE 3280 -2768 3264 -2768
WIRE 3360 -2768 3360 -2944
WIRE 3360 -2768 3344 -2768
WIRE 3504 -2768 3504 -2848
WIRE 3504 -2768 3360 -2768
WIRE 3600 -2768 3600 -2832
WIRE 3600 -2768 3504 -2768
WIRE 3504 -2736 3504 -2768
WIRE 3264 -2704 3264 -2768
WIRE 3280 -2704 3264 -2704
WIRE 3392 -2704 3392 -2992
WIRE 3392 -2704 3344 -2704
WIRE 3696 -2688 3680 -2688
WIRE 3792 -2688 3792 -2704
WIRE 3792 -2688 3776 -2688
WIRE 3792 -2672 3792 -2688
WIRE 3552 -2640 3360 -2640
WIRE 3600 -2640 3552 -2640
WIRE 3360 -2608 3360 -2640
WIRE 3552 -2608 3552 -2640
WIRE 2640 -2560 2640 -2576
WIRE 2720 -2560 2720 -2576
WIRE 3792 -2560 3792 -2592
WIRE 2816 -2528 2800 -2528
WIRE 3232 -2528 3024 -2528
WIRE 3888 -2528 3680 -2528
WIRE 4128 -2528 4096 -2528
WIRE 2816 -2496 2800 -2496
WIRE 3056 -2496 3024 -2496
WIRE 3136 -2496 3056 -2496
WIRE 3856 -2496 3776 -2496
WIRE 3888 -2496 3856 -2496
WIRE 4128 -2496 4096 -2496
WIRE 3056 -2480 3056 -2496
WIRE 3136 -2480 3136 -2496
WIRE 3776 -2480 3776 -2496
WIRE 3856 -2480 3856 -2496
WIRE 3056 -2400 3056 -2416
WIRE 3056 -2400 3024 -2400
WIRE 3360 -2400 3360 -2512
WIRE 3360 -2400 3056 -2400
WIRE 3408 -2400 3360 -2400
WIRE 3552 -2400 3552 -2512
WIRE 3552 -2400 3488 -2400
WIRE 3856 -2400 3856 -2416
WIRE 3856 -2400 3552 -2400
WIRE 3888 -2400 3856 -2400
WIRE 2752 -2368 2720 -2368
WIRE 2816 -2368 2752 -2368
WIRE 3056 -2368 3024 -2368
WIRE 3136 -2368 3136 -2416
WIRE 3136 -2368 3056 -2368
WIRE 3152 -2368 3136 -2368
WIRE 3776 -2368 3776 -2416
WIRE 3776 -2368 3760 -2368
WIRE 3856 -2368 3776 -2368
WIRE 3888 -2368 3856 -2368
WIRE 4160 -2368 4096 -2368
WIRE 4192 -2368 4160 -2368
WIRE 3056 -2352 3056 -2368
WIRE 3856 -2352 3856 -2368
WIRE 2752 -2336 2752 -2368
WIRE 4160 -2336 4160 -2368
WIRE 3360 -2320 3360 -2400
WIRE 3552 -2320 3552 -2400
WIRE 3056 -2272 3056 -2288
WIRE 3056 -2272 3024 -2272
WIRE 3856 -2272 3856 -2288
WIRE 3888 -2272 3856 -2272
WIRE 2752 -2240 2752 -2272
WIRE 2816 -2240 2752 -2240
WIRE 3216 -2240 3024 -2240
WIRE 3312 -2240 3296 -2240
WIRE 3616 -2240 3600 -2240
WIRE 3888 -2240 3696 -2240
WIRE 4160 -2240 4160 -2272
WIRE 4160 -2240 4096 -2240
WIRE 3056 -2192 3056 -2272
WIRE 3360 -2192 3360 -2224
WIRE 3360 -2192 3056 -2192
WIRE 3552 -2192 3552 -2224
WIRE 3552 -2192 3360 -2192
WIRE 3856 -2192 3856 -2272
WIRE 3856 -2192 3552 -2192
WIRE 2752 -2160 2752 -2240
WIRE 3360 -2160 3360 -2192
WIRE 4160 -2160 4160 -2240
FLAG 3504 -2736 0
FLAG 2640 -2576 lo
IOPIN 2640 -2576 BiDir
FLAG 2720 -2576 hi
IOPIN 2720 -2576 BiDir
FLAG 3360 -2160 0
FLAG 3680 -2688 VCC_mosfet_drive
IOPIN 3680 -2688 BiDir
FLAG 2752 -2160 0
FLAG 2800 -2528 hi
IOPIN 2800 -2528 BiDir
FLAG 2800 -2496 lo
IOPIN 2800 -2496 BiDir
FLAG 2720 -2480 0
FLAG 2640 -2480 0
FLAG 3904 -2752 0
FLAG 3904 -2832 VDD_logic
IOPIN 3904 -2832 BiDir
FLAG 4160 -2160 0
FLAG 4128 -2496 hi
IOPIN 4128 -2496 BiDir
FLAG 4128 -2528 lo
IOPIN 4128 -2528 BiDir
FLAG 3600 -2640 +
IOPIN 3600 -2640 BiDir
FLAG 3792 -2704 +
IOPIN 3792 -2704 BiDir
FLAG 3760 -2368 VCC_mosfet_drive
IOPIN 3760 -2368 BiDir
FLAG 3152 -2368 VCC_mosfet_drive
IOPIN 3152 -2368 BiDir
FLAG 4192 -2368 VDD_logic
IOPIN 4192 -2368 BiDir
FLAG 2720 -2368 VDD_logic
IOPIN 2720 -2368 BiDir
FLAG 3792 -2560 0
SYMBOL ind2 3280 -2816 R180
WINDOW 0 36 80 Left 2
WINDOW 3 36 40 Left 2
SYMATTR InstName L5
SYMATTR Value 40m
SYMATTR SpiceLine Rser=.42
SYMATTR Type ind
SYMBOL diode 3280 -2976 R270
WINDOW 0 32 32 VTop 2
WINDOW 3 0 32 VBottom 2
SYMATTR InstName D6
SYMATTR Value RFN5TF8S
SYMBOL Misc\\EuropeanCap 3488 -2912 R0
SYMATTR InstName C4
SYMATTR Value 50n
SYMBOL Misc\\EuropeanResistor 3616 -2928 M0
SYMATTR InstName R4
SYMATTR Value 10k
SYMBOL voltage 2640 -2576 M0
WINDOW 0 -21 128 Left 2
WINDOW 3 -134 119 Invisible 2
WINDOW 123 0 0 Left 2
SYMATTR InstName 2
SYMATTR Value PULSE(0 5 {lo_delay} {TT} {TT} {on_width} {period})
SYMATTR SpiceLine Rser=0
SYMBOL nmos 3312 -2320 R0
WINDOW 0 -21 44 Left 2
WINDOW 3 -12 -5 Left 2
SYMATTR InstName M5
SYMATTR Value IRF740
SYMBOL nmos 3312 -2608 R0
WINDOW 0 -21 44 Left 2
WINDOW 3 -12 -5 Left 2
SYMATTR InstName M6
SYMATTR Value IRF740
SYMBOL Misc\\EuropeanCap 3040 -2480 R0
SYMATTR InstName C1
SYMATTR Value 2µ2
SYMATTR SpiceLine V=400 Irms=1 Lser=0
SYMBOL diode 3152 -2416 R180
WINDOW 0 -29 68 Left 2
WINDOW 3 -106 -4 Left 2
SYMATTR InstName D1
SYMATTR Value MURS120
SYMBOL cap 2736 -2336 R0
SYMATTR InstName C3
SYMATTR Value 10µf
SYMBOL IR2110 2912 -2384 R0
WINDOW 0 16 -157 Center 2
SYMATTR InstName U1
SYMBOL ind2 3504 -2416 R90
WINDOW 0 4 56 VBottom 2
WINDOW 3 32 56 VTop 2
SYMATTR InstName L1
SYMATTR Value 20µ
SYMATTR SpiceLine Rser=.002
SYMATTR Type ind
SYMBOL Misc\\EuropeanResistor 3216 -2544 M90
WINDOW 0 5 56 VBottom 2
WINDOW 3 27 56 VTop 2
SYMATTR InstName R2
SYMATTR Value 33
SYMBOL Misc\\EuropeanResistor 3200 -2256 M90
WINDOW 0 5 56 VBottom 2
WINDOW 3 27 56 VTop 2
SYMATTR InstName R3
SYMATTR Value 33
SYMBOL Misc\\EuropeanCap 3040 -2352 R0
SYMATTR InstName C5
SYMATTR Value 2µ2
SYMATTR SpiceLine V=400 Irms=1 Lser=0
SYMBOL voltage 2720 -2576 M0
WINDOW 0 -21 128 Left 2
WINDOW 3 -134 119 Invisible 2
SYMATTR InstName 1
SYMATTR Value PULSE(0 5 {hi_delay} {TT} {TT} {on_width} {period})
SYMATTR SpiceLine Rser=0
SYMBOL voltage 3904 -2848 R0
WINDOW 123 0 0 Left 2
WINDOW 39 24 36 Left 2
SYMATTR SpiceLine Rser=20
SYMATTR InstName V3
SYMATTR Value 5
SYMBOL voltage 3792 -2688 R0
WINDOW 123 0 0 Left 2
WINDOW 39 24 36 Left 2
SYMATTR SpiceLine Rser=0
SYMATTR InstName V1
SYMATTR Value 15
SYMBOL nmos 3600 -2320 M0
WINDOW 0 -21 44 Left 2
WINDOW 3 -12 -5 Left 2
SYMATTR InstName M1
SYMATTR Value IRF740
SYMBOL nmos 3600 -2608 M0
WINDOW 0 -21 44 Left 2
WINDOW 3 -12 -5 Left 2
SYMATTR InstName M2
SYMATTR Value IRF740
SYMBOL Misc\\EuropeanCap 3872 -2480 M0
SYMATTR InstName C2
SYMATTR Value 2µ2
SYMATTR SpiceLine V=400 Irms=1 Lser=0
SYMBOL diode 3760 -2416 M180
WINDOW 0 -29 68 Left 2
WINDOW 3 -106 -4 Left 2
SYMATTR InstName D5
SYMATTR Value MURS120
SYMBOL cap 4176 -2336 M0
SYMATTR InstName C6
SYMATTR Value 10µf
SYMBOL IR2110 4000 -2384 M0
WINDOW 0 16 -157 Center 2
SYMATTR InstName U2
SYMBOL Misc\\EuropeanResistor 3696 -2544 R90
WINDOW 0 5 56 VBottom 2
WINDOW 3 27 56 VTop 2
SYMATTR InstName R1
SYMATTR Value 33
SYMBOL Misc\\EuropeanResistor 3712 -2256 R90
WINDOW 0 5 56 VBottom 2
WINDOW 3 27 56 VTop 2
SYMATTR InstName R5
SYMATTR Value 33
SYMBOL Misc\\EuropeanCap 3872 -2352 M0
SYMATTR InstName C7
SYMATTR Value 2µ2
SYMATTR SpiceLine V=400 Irms=1 Lser=0
SYMBOL diode 3344 -2928 M270
WINDOW 0 32 32 VTop 2
WINDOW 3 0 32 VBottom 2
SYMATTR InstName D2
SYMATTR Value RFN5TF8S
SYMBOL diode 3280 -2688 R270
WINDOW 0 32 32 VTop 2
WINDOW 3 0 32 VBottom 2
SYMATTR InstName D3
SYMATTR Value RFN5TF8S
SYMBOL diode 3344 -2752 M270
WINDOW 0 32 32 VTop 2
WINDOW 3 0 32 VBottom 2
SYMATTR InstName D4
SYMATTR Value RFN5TF8S
SYMBOL Misc\\EuropeanResistor 3680 -2704 M90
WINDOW 0 5 56 VBottom 2
WINDOW 3 27 56 VTop 2
SYMATTR InstName R6
SYMATTR Value 10
TEXT 2616 -3008 Left 2 !.param duty      =25\n.param freq      =50k\n.param period              = 1/freq\n.param TT               = 1e-9\n.param Xcond_delay =1e-8\n.param on_width   = period/2*duty/100-Xcond_delay*2\n.param lo_delay    =Xcond_delay\n.param hi_delay    =period/2 + Xcond_delay
TEXT 2864 -2600 Left 2 !.lib NE5532.sub
TEXT 2864 -2576 Left 2 !.lib LM318.sub
TEXT 2864 -2624 Left 2 !.include ir2110.sub
TEXT 3408 -2528 Left 2 !K2 L1 L5 1.0
TEXT 2896 -2656 Left 2 !.tran .01
TEXT 4048 -2600 Right 2 !.lib NE5532.sub
TEXT 4048 -2576 Right 2 !.lib LM318.sub
TEXT 4048 -2624 Right 2 !.include ir2110.sub
