Version 4
SHEET 1 6068 1612
WIRE 3600 -3088 2272 -3088
WIRE 2624 -3056 2592 -3056
WIRE 2704 -3056 2624 -3056
WIRE 2816 -3056 2800 -3056
WIRE 3008 -3056 2864 -3056
WIRE 3120 -3056 3008 -3056
WIRE 3184 -3056 3120 -3056
WIRE 3248 -3056 3184 -3056
WIRE 3376 -3056 3360 -3056
WIRE 3472 -3056 3456 -3056
WIRE 3488 -3056 3472 -3056
WIRE 3600 -3056 3600 -3088
WIRE 3600 -3056 3568 -3056
WIRE 2224 -3040 2224 -3056
WIRE 2272 -3040 2272 -3088
WIRE 2272 -3040 2224 -3040
WIRE 2592 -3040 2592 -3056
WIRE 2624 -3040 2624 -3056
WIRE 2640 -3040 2624 -3040
WIRE 3008 -3040 3008 -3056
WIRE 3120 -3040 3120 -3056
WIRE 3184 -3040 3184 -3056
WIRE 2224 -3024 2224 -3040
WIRE 2704 -3024 2704 -3056
WIRE 2800 -3024 2800 -3056
WIRE 3360 -3024 3360 -3056
WIRE 2864 -3008 2864 -3056
WIRE 2880 -3008 2864 -3008
WIRE 2976 -3008 2960 -3008
WIRE 3248 -3008 3248 -3056
WIRE 2352 -2992 2320 -2992
WIRE 2112 -2976 2112 -3040
WIRE 2224 -2960 2224 -2976
WIRE 2352 -2960 2336 -2960
WIRE 2896 -2960 2880 -2960
WIRE 2960 -2960 2960 -2976
WIRE 2960 -2960 2944 -2960
WIRE 1968 -2944 1936 -2944
WIRE 2048 -2944 2032 -2944
WIRE 2112 -2944 2048 -2944
WIRE 2224 -2944 2224 -2960
WIRE 3008 -2944 3008 -2960
WIRE 3120 -2944 3120 -2960
WIRE 3120 -2944 3008 -2944
WIRE 3472 -2944 3472 -3056
WIRE 3488 -2944 3472 -2944
WIRE 2224 -2928 2224 -2944
WIRE 2336 -2928 2336 -2960
WIRE 2880 -2928 2880 -2960
WIRE 2960 -2928 2960 -2960
WIRE 3120 -2928 3120 -2944
WIRE 3600 -2928 3600 -3056
WIRE 3600 -2928 3552 -2928
WIRE 2048 -2912 2048 -2944
WIRE 2736 -2912 2736 -3056
WIRE 2800 -2912 2800 -2944
WIRE 2816 -2912 2800 -2912
WIRE 2864 -2912 2864 -3008
WIRE 2976 -2912 2976 -3008
WIRE 3072 -2912 3040 -2912
WIRE 3248 -2912 3248 -2928
WIRE 3488 -2912 3248 -2912
WIRE 2864 -2896 2864 -2912
WIRE 3248 -2896 3248 -2912
WIRE 2704 -2864 2704 -2944
WIRE 2704 -2864 2560 -2864
WIRE 2736 -2864 2736 -2912
WIRE 2752 -2864 2736 -2864
WIRE 3072 -2848 3072 -2912
WIRE 2304 -2832 2304 -2848
WIRE 2352 -2832 2304 -2832
WIRE 2592 -2832 2560 -2832
WIRE 2624 -2832 2592 -2832
WIRE 2752 -2832 2752 -2864
WIRE 2048 -2816 2048 -2832
WIRE 2208 -2816 2160 -2816
WIRE 2592 -2816 2592 -2832
WIRE 2736 -2816 2736 -2864
WIRE 2864 -2816 2864 -2832
WIRE 2864 -2816 2736 -2816
WIRE 2976 -2816 2976 -2832
WIRE 2976 -2816 2864 -2816
WIRE 3040 -2816 3040 -2832
WIRE 3040 -2816 2976 -2816
WIRE 3120 -2816 3120 -2832
WIRE 3120 -2816 3040 -2816
WIRE 2304 -2800 2304 -2832
WIRE 2160 -2784 2160 -2816
WIRE 2704 -2784 2704 -2864
WIRE 2224 -2736 2208 -2736
WIRE 2592 -2736 2592 -2752
WIRE 2592 -2736 2560 -2736
WIRE 2592 -2720 2592 -2736
WIRE 2304 -2704 2304 -2736
WIRE 2352 -2704 2304 -2704
WIRE 2656 -2704 2560 -2704
WIRE 3312 -2688 3264 -2688
WIRE 3264 -2672 3264 -2688
WIRE 3312 -2672 3312 -2688
WIRE 3264 -2576 3264 -2592
WIRE 3312 -2576 3312 -2592
WIRE 3312 -2576 3264 -2576
FLAG 2528 -3056 0
FLAG 2960 -2976 0
FLAG 2592 -2720 0
FLAG 2304 -2704 0
FLAG 2304 -2848 VDD
IOPIN 2304 -2848 BiDir
FLAG 2704 -2688 0
FLAG 2320 -2992 0
FLAG 2656 -2880 0
FLAG 2656 -2960 VDD
IOPIN 2656 -2960 BiDir
FLAG 2592 -2880 0
FLAG 2624 -2832 +
IOPIN 2624 -2832 BiDir
FLAG 2640 -3040 +
IOPIN 2640 -3040 BiDir
FLAG 2160 -2784 0
FLAG 2224 -2736 -op
IOPIN 2224 -2736 BiDir
FLAG 3360 -2944 0
FLAG 3264 -2576 0
FLAG 2752 -2832 0
FLAG 3248 -2816 0
FLAG 3520 -2896 -op
IOPIN 3520 -2896 BiDir
FLAG 1936 -2864 0
FLAG 3184 -2960 0
FLAG 3520 -2960 +
IOPIN 3520 -2960 BiDir
FLAG 2048 -2816 0
SYMBOL ind2 2816 -2928 R180
WINDOW 0 36 80 Invisible 2
WINDOW 3 -2 31 Left 2
SYMATTR InstName L2
SYMATTR Value 40µ
SYMATTR SpiceLine Rser=.42
SYMATTR Type ind
SYMBOL diode 2800 -3040 R270
WINDOW 0 32 32 Invisible 2
WINDOW 3 0 32 Invisible 2
SYMATTR InstName D1
SYMATTR Value 1N4148
SYMBOL ind2 2688 -2928 M180
WINDOW 0 36 80 Invisible 2
WINDOW 3 3 30 Left 2
SYMATTR InstName L3
SYMATTR Value 40µ
SYMATTR SpiceLine Rser=.0003
SYMATTR Type ind
SYMBOL Misc\\EuropeanCap 2528 -3072 M90
WINDOW 0 0 32 Invisible 2
WINDOW 3 -9 69 VTop 2
SYMATTR InstName C3
SYMATTR Value 6600µ
SYMATTR SpiceLine Rser=.005
SYMBOL sw 2976 -3008 M270
WINDOW 0 71 33 Invisible 2
SYMATTR InstName S3
SYMATTR SpiceModel SW2
SYMATTR Value ""
SYMBOL voltage 2976 -2928 R0
WINDOW 123 0 0 Left 2
WINDOW 0 24 16 Invisible 2
WINDOW 3 -14 57 Left 2
SYMATTR InstName V8
SYMATTR Value 0
SYMATTR SpiceLine Rser=0
SYMBOL voltage 2864 -2928 M90
WINDOW 0 32 8 Invisible 2
WINDOW 3 61 -91 Invisible 2
WINDOW 123 0 0 Left 2
SYMATTR InstName V9
SYMATTR Value PULSE(0 400 0 0 0 10u 1 1)
SYMATTR SpiceLine Rser=0
SYMBOL voltage 3040 -2928 R0
WINDOW 0 32 8 Invisible 2
WINDOW 3 64 -82 Invisible 2
WINDOW 123 0 0 Left 2
SYMATTR InstName V10
SYMATTR Value PULSE(0 20 1000000u 0 0 2u 500u)
SYMATTR SpiceLine Rser=0
SYMBOL IR2110 2448 -2848 R0
WINDOW 0 16 -157 Center 2
WINDOW 3 14 -130 Center 2
SYMATTR InstName U1
SYMBOL Misc\\EuropeanCap 2576 -2816 R0
WINDOW 0 24 4 Invisible 2
SYMATTR InstName C18
SYMATTR Value 2µ2
SYMATTR SpiceLine V=400 Irms=1 Lser=0
SYMBOL Misc\\EuropeanCap 2320 -2800 M0
WINDOW 0 24 4 Invisible 2
WINDOW 3 -14 7 Left 2
SYMATTR InstName C19
SYMATTR Value 10µ
SYMATTR SpiceLine V=400 Irms=1 Lser=0
SYMBOL voltage 2656 -2976 R0
WINDOW 39 0 0 Left 2
WINDOW 0 24 16 Invisible 2
WINDOW 3 24 96 Invisible 2
SYMATTR InstName V7
SYMATTR Value 5
SYMBOL nmos 2656 -2784 R0
WINDOW 0 -21 44 Invisible 2
WINDOW 3 -12 -5 Invisible 2
SYMATTR InstName M1
SYMATTR Value BSZ22DN20NS3
SYMBOL voltage 2592 -2976 R0
WINDOW 0 24 16 Invisible 2
WINDOW 3 -10 56 Left 2
SYMATTR InstName V6
SYMATTR Value 12
SYMATTR SpiceLine Rser=0
SYMBOL Misc\\EuropeanResistor 2576 -2944 M180
WINDOW 0 31 76 Invisible 2
WINDOW 3 31 40 Left 2
SYMATTR InstName R6
SYMATTR Value .05
SYMBOL voltage 2208 -2832 R0
WINDOW 0 24 16 Invisible 2
WINDOW 3 -10 56 Left 2
SYMATTR InstName V2
SYMATTR Value 12
SYMATTR SpiceLine Rser=0
SYMBOL diode 2800 -2896 R270
WINDOW 0 32 32 Invisible 2
WINDOW 3 0 32 Invisible 2
SYMATTR InstName D2
SYMATTR Value 1N4148
SYMBOL diode 2736 -3040 R270
WINDOW 0 32 32 Invisible 2
WINDOW 3 0 32 Invisible 2
SYMATTR InstName D3
SYMATTR Value 1N4148
SYMBOL diode 2736 -2896 R270
WINDOW 0 32 32 Invisible 2
WINDOW 3 0 32 Invisible 2
SYMATTR InstName D4
SYMATTR Value 1N4148
SYMBOL Misc\\EuropeanCap 2848 -2896 R0
WINDOW 0 24 4 Invisible 2
WINDOW 3 -30 33 Left 2
SYMATTR InstName C1
SYMATTR Value 150µ
SYMATTR SpiceLine Rser=.0008
SYMBOL voltage 3360 -3040 R0
WINDOW 0 24 16 Invisible 2
WINDOW 3 -10 56 Left 2
WINDOW 123 0 0 Left 2
SYMATTR InstName V3
SYMATTR Value 2.5
SYMATTR SpiceLine Rser=0
SYMBOL CD4000\\CD4011B 2160 -3024 R0
WINDOW 0 -16 16 Invisible 2
WINDOW 3 -26 -6 Invisible 2
SYMATTR InstName U4
SYMBOL CD4000\\CD4011B 2272 -3024 R0
WINDOW 0 -16 16 Invisible 2
WINDOW 3 -32 113 Invisible 2
SYMATTR InstName U5
SYMBOL CD4000\\CD4011B 2176 -3104 M0
WINDOW 0 -16 16 Invisible 2
WINDOW 3 -32 113 Invisible 2
SYMATTR InstName U6
SYMBOL nmos 3072 -2928 R0
WINDOW 0 -21 44 Invisible 2
WINDOW 3 -12 -5 Invisible 2
SYMATTR InstName M2
SYMATTR Value IRF740
SYMBOL ind2 2992 -3056 R0
WINDOW 0 36 40 Invisible 2
SYMATTR InstName L4
SYMATTR Value 250µH
SYMATTR Type ind
SYMATTR SpiceLine Rser=.17 Cpar=100p
SYMBOL ind2 3296 -2688 R0
SYMATTR InstName L1
SYMATTR Value .1µH
SYMATTR Type ind
SYMBOL Misc\\EuropeanResistor 3280 -2688 M0
SYMATTR InstName R2
SYMATTR Value 500
SYMBOL Misc\\EuropeanResistor 3104 -2944 M180
WINDOW 0 31 76 Left 2
WINDOW 3 31 40 Left 2
SYMATTR InstName R3
SYMATTR Value 400
SYMBOL Misc\\EuropeanResistor 3232 -2912 M180
WINDOW 0 31 76 Left 2
WINDOW 3 31 40 Left 2
SYMATTR InstName R4
SYMATTR Value 30k
SYMBOL Misc\\EuropeanResistor 3264 -2912 M0
SYMATTR InstName R7
SYMATTR Value 10K
SYMBOL Opamps\\opamp2 3520 -2992 R0
WINDOW 3 -32 63 Left 2
WINDOW 0 16 32 Invisible 2
SYMATTR Value lm318
SYMATTR InstName U2
SYMBOL Misc\\EuropeanResistor 3584 -3040 M270
WINDOW 0 27 56 Invisible 2
WINDOW 3 5 56 VBottom 2
SYMATTR InstName R1
SYMATTR Value 1Meg
SYMBOL Misc\\EuropeanResistor 3472 -3040 M270
WINDOW 0 27 56 Invisible 2
WINDOW 3 5 56 VBottom 2
SYMATTR InstName R5
SYMATTR Value 1k
SYMBOL voltage 1936 -2960 R0
WINDOW 0 32 8 Invisible 2
WINDOW 3 64 -82 Invisible 2
WINDOW 123 0 0 Left 2
SYMATTR InstName V4
SYMATTR Value PULSE(0 5 0 200n 200n 800n 2u)
SYMATTR SpiceLine Rser=0
SYMBOL Misc\\EuropeanResistor 3168 -2944 M180
WINDOW 0 31 76 Left 2
WINDOW 3 31 40 Left 2
SYMATTR InstName R8
SYMATTR Value 59
SYMBOL Misc\\EuropeanCap 2032 -2928 M270
WINDOW 0 32 32 VTop 2
WINDOW 3 0 32 VBottom 2
SYMATTR InstName C2
SYMATTR Value 1n
SYMATTR SpiceLine V=400 Irms=1 Lser=0
SYMBOL Misc\\EuropeanResistor 2032 -2816 M180
WINDOW 0 31 76 Invisible 2
WINDOW 3 31 40 Left 2
SYMATTR InstName R9
SYMATTR Value 4k
TEXT 2712 -2800 Left 2 !.tran 50m
TEXT 2664 -3072 Left 2 !K3 L3 L2 1.0
TEXT 2400 -2896 Left 2 !.inc ir2110.sub
TEXT 2712 -2736 Left 2 !.lib LM318.sub
TEXT 2712 -2784 Left 2 !.model SW2 SW(Ron=1n Roff=1000G Vt=0.5 Vh=.4)
TEXT 2712 -2768 Left 2 !.lib CD4066.sub
TEXT 2712 -2720 Left 2 !.inc CD4000.lib
TEXT 2712 -2704 Left 2 !.inc cd4066.sub
TEXT 2712 -2752 Left 2 !.lib NE5532.sub
TEXT 3000 -3072 Left 2 !K2 L1 L4 1.0
