Version 4
SHEET 1 6068 1612
WIRE 2688 -3232 2320 -3232
WIRE 3040 -3216 3024 -3216
WIRE 2704 -3056 2624 -3056
WIRE 2816 -3056 2800 -3056
WIRE 2704 -3040 2704 -3056
WIRE 2800 -3024 2800 -3056
WIRE 2864 -3008 2864 -3056
WIRE 2864 -3008 2832 -3008
WIRE 2352 -2992 2336 -2992
WIRE 2320 -2960 2320 -3232
WIRE 2352 -2960 2320 -2960
WIRE 2736 -2912 2736 -3056
WIRE 2800 -2912 2800 -2944
WIRE 2816 -2912 2800 -2912
WIRE 2864 -2912 2864 -3008
WIRE 2592 -2864 2560 -2864
WIRE 2736 -2864 2736 -2912
WIRE 2752 -2864 2736 -2864
WIRE 2592 -2848 2592 -2864
WIRE 2352 -2832 2336 -2832
WIRE 2592 -2832 2560 -2832
WIRE 2608 -2832 2592 -2832
WIRE 2752 -2832 2752 -2864
WIRE 2592 -2816 2592 -2832
WIRE 2704 -2784 2704 -2960
WIRE 2592 -2736 2592 -2752
WIRE 2592 -2736 2560 -2736
WIRE 2592 -2720 2592 -2736
WIRE 2352 -2704 2336 -2704
WIRE 2656 -2704 2560 -2704
FLAG 2592 -2720 0
FLAG 2336 -2704 0
FLAG 2336 -2832 VDD
IOPIN 2336 -2832 BiDir
FLAG 2704 -2688 0
FLAG 2336 -2992 0
FLAG 2656 -2880 0
FLAG 2656 -2960 VDD
IOPIN 2656 -2960 BiDir
FLAG 2608 -2832 +
IOPIN 2608 -2832 BiDir
FLAG 2624 -3056 +
IOPIN 2624 -3056 BiDir
FLAG 2752 -2832 0
FLAG 2592 -2848 0
FLAG 2944 -3216 0
FLAG 3040 -3216 +
IOPIN 3040 -3216 BiDir
FLAG 2832 -2944 0
FLAG 2768 -3232 0
SYMBOL ind2 2816 -2928 R180
WINDOW 0 36 80 Invisible 2
WINDOW 3 -2 31 Left 2
SYMATTR InstName L2
SYMATTR Value 96m65
SYMATTR SpiceLine Rser=.6 Cpar=95p
SYMATTR Type ind
SYMBOL diode 2800 -3040 R270
WINDOW 0 32 32 Invisible 2
WINDOW 3 0 32 Invisible 2
SYMATTR InstName D1
SYMATTR Value 1N4148
SYMBOL ind2 2688 -2944 M180
WINDOW 0 36 80 Invisible 2
WINDOW 3 3 30 Left 2
SYMATTR InstName L3
SYMATTR Value 45µ
SYMATTR SpiceLine Rser=.0003
SYMATTR Type ind
SYMBOL Misc\\EuropeanCap 2608 -2816 M0
WINDOW 3 -32 57 Left 2
SYMATTR InstName C3
SYMATTR Value 6600µ
SYMATTR SpiceLine Rser=.005
SYMBOL IR2110 2448 -2848 R0
WINDOW 0 16 -157 Center 2
WINDOW 3 14 -130 Center 2
SYMATTR InstName U1
SYMBOL voltage 2656 -2976 R0
WINDOW 39 0 0 Left 2
WINDOW 0 24 16 Invisible 2
WINDOW 3 24 96 Invisible 2
SYMATTR InstName V7
SYMATTR Value 5
SYMBOL nmos 2656 -2784 R0
WINDOW 0 -21 44 Invisible 2
WINDOW 3 -12 -5 Invisible 2
SYMATTR InstName M1
SYMATTR Value IRF740
SYMBOL diode 2800 -2896 R270
WINDOW 0 32 32 Invisible 2
WINDOW 3 0 32 Invisible 2
SYMATTR InstName D2
SYMATTR Value 1N4148
SYMBOL diode 2736 -3040 R270
WINDOW 0 32 32 Invisible 2
WINDOW 3 0 32 Invisible 2
SYMATTR InstName D3
SYMATTR Value 1N4148
SYMBOL diode 2736 -2896 R270
WINDOW 0 32 32 Invisible 2
WINDOW 3 0 32 Invisible 2
SYMATTR InstName D4
SYMATTR Value 1N4148
SYMBOL voltage 3040 -3216 R90
WINDOW 0 -32 56 VBottom 2
WINDOW 3 32 56 VTop 2
WINDOW 123 0 0 Left 2
SYMATTR InstName V5
SYMATTR Value 15
SYMATTR SpiceLine Rser=.5
SYMBOL Misc\\EuropeanCap 2816 -3008 R0
WINDOW 0 24 4 Invisible 2
WINDOW 3 -30 33 Invisible 2
SYMATTR InstName C6
SYMATTR Value 10n
SYMATTR SpiceLine Rser=.7
SYMBOL voltage 2672 -3232 M90
WINDOW 0 32 8 Invisible 2
WINDOW 3 64 -82 Invisible 2
WINDOW 123 0 0 Left 2
SYMATTR InstName V1
SYMATTR Value PULSE(0 5 0 10n 10n {duty/freq} {1/freq})
SYMATTR SpiceLine Rser=0
TEXT 2712 -2800 Left 2 !.tran 1m
TEXT 2664 -3072 Left 2 !K3 L3 L2 1.0
TEXT 2400 -2896 Left 2 !.inc ir2110.sub
TEXT 2712 -2736 Left 2 !.lib LM318.sub
TEXT 2712 -2784 Left 2 !.model SW2 SW(Ron=1n Roff=1000G Vt=0.5 Vh=.4)
TEXT 2712 -2768 Left 2 !.lib CD4066.sub
TEXT 2712 -2720 Left 2 !.inc CD4000.lib
TEXT 2712 -2704 Left 2 !.inc cd4066.sub
TEXT 2712 -2752 Left 2 !.lib NE5532.sub
TEXT 3096 -3152 Left 2 !.step param duty=0.1 0.95 0.05\n.param freq=500k\n \n;.param duty=.5\n;.step param freq list 10k 20k 50k 100k 200k 500k 750k 1000k\n \n;.step param duty list .05 .1 .2 .5 .7 .9 .95\n;.step param freq list 100k 250k 500k 750k\n \n; best 250k duty=0.8\n; best 500k duty=0.7  1.4Kv
