Version 4
SHEET 1 6068 1612
WIRE 3568 -3152 2832 -3152
WIRE 2448 -3136 2384 -3136
WIRE 2560 -3136 2560 -3152
WIRE 2720 -3136 2560 -3136
WIRE 2560 -3120 2560 -3136
WIRE 2832 -3104 2832 -3120
WIRE 2848 -3104 2832 -3104
WIRE 2944 -3104 2928 -3104
WIRE 2944 -3088 2944 -3104
WIRE 2816 -3056 2800 -3056
WIRE 3008 -3056 2864 -3056
WIRE 3120 -3056 3008 -3056
WIRE 3184 -3056 3120 -3056
WIRE 3248 -3056 3184 -3056
WIRE 2704 -3040 2688 -3040
WIRE 3008 -3040 3008 -3056
WIRE 3120 -3040 3120 -3056
WIRE 3184 -3040 3184 -3056
WIRE 3248 -3040 3248 -3056
WIRE 2800 -3024 2800 -3056
WIRE 3424 -3024 3408 -3024
WIRE 3440 -3024 3424 -3024
WIRE 2864 -3008 2864 -3056
WIRE 2880 -3008 2864 -3008
WIRE 2976 -3008 2960 -3008
WIRE 2384 -2992 2384 -3136
WIRE 2416 -2992 2384 -2992
WIRE 2656 -2992 2624 -2992
WIRE 2384 -2960 2384 -2992
WIRE 2416 -2960 2384 -2960
WIRE 2896 -2960 2880 -2960
WIRE 2960 -2960 2960 -2976
WIRE 2960 -2960 2944 -2960
WIRE 2704 -2944 2704 -2960
WIRE 2720 -2944 2704 -2944
WIRE 3008 -2944 3008 -2960
WIRE 3120 -2944 3120 -2960
WIRE 3120 -2944 3008 -2944
WIRE 3248 -2944 3248 -2960
WIRE 3488 -2944 3248 -2944
WIRE 2704 -2928 2704 -2944
WIRE 2880 -2928 2880 -2960
WIRE 2960 -2928 2960 -2960
WIRE 3120 -2928 3120 -2944
WIRE 3248 -2928 3248 -2944
WIRE 3568 -2928 3568 -3152
WIRE 3568 -2928 3552 -2928
WIRE 2736 -2912 2736 -3056
WIRE 2800 -2912 2800 -2944
WIRE 2816 -2912 2800 -2912
WIRE 2864 -2912 2864 -3008
WIRE 2976 -2912 2976 -3008
WIRE 3072 -2912 3040 -2912
WIRE 3488 -2912 3408 -2912
WIRE 3408 -2896 3408 -2912
WIRE 2864 -2880 2864 -2912
WIRE 2864 -2880 2816 -2880
WIRE 2912 -2880 2864 -2880
WIRE 2640 -2864 2624 -2864
WIRE 2736 -2864 2736 -2912
WIRE 2752 -2864 2736 -2864
WIRE 2656 -2848 2656 -2992
WIRE 3072 -2848 3072 -2912
WIRE 3344 -2848 3344 -2864
WIRE 2416 -2832 2400 -2832
WIRE 2752 -2832 2752 -2864
WIRE 3248 -2832 3248 -2848
WIRE 3520 -2832 3472 -2832
WIRE 2400 -2816 2400 -2832
WIRE 2736 -2816 2736 -2864
WIRE 2816 -2816 2736 -2816
WIRE 2864 -2816 2816 -2816
WIRE 2912 -2816 2864 -2816
WIRE 2976 -2816 2976 -2832
WIRE 2976 -2816 2912 -2816
WIRE 3040 -2816 3040 -2832
WIRE 3040 -2816 2976 -2816
WIRE 3120 -2816 3120 -2832
WIRE 3120 -2816 3040 -2816
WIRE 3472 -2816 3472 -2832
WIRE 3520 -2816 3520 -2832
WIRE 2720 -2784 2720 -2944
WIRE 2720 -2784 2704 -2784
WIRE 3184 -2752 3184 -2784
WIRE 3184 -2752 3168 -2752
WIRE 2640 -2736 2624 -2736
WIRE 3472 -2720 3472 -2736
WIRE 3520 -2720 3520 -2736
WIRE 3520 -2720 3472 -2720
WIRE 2416 -2704 2400 -2704
WIRE 2656 -2704 2624 -2704
WIRE 2848 -2704 2848 -2752
WIRE 3424 -2688 3424 -2704
FLAG 2960 -2976 0
FLAG 2400 -2704 0
FLAG 2400 -2816 VDD
IOPIN 2400 -2816 BiDir
FLAG 2704 -2688 0
FLAG 3344 -2768 0
FLAG 3344 -2864 VDD
IOPIN 3344 -2864 BiDir
FLAG 2624 -2832 +
IOPIN 2624 -2832 BiDir
FLAG 2688 -3040 +
IOPIN 2688 -3040 BiDir
FLAG 3296 -2912 0
FLAG 3296 -2832 -op
IOPIN 3296 -2832 BiDir
FLAG 3408 -2816 0
FLAG 3472 -2720 0
FLAG 2752 -2832 0
FLAG 3248 -2832 0
FLAG 3520 -2896 -op
IOPIN 3520 -2896 BiDir
FLAG 2944 -3088 0
FLAG 3520 -2960 +
IOPIN 3520 -2960 BiDir
FLAG 3424 -2688 0
FLAG 2640 -2864 0
FLAG 3328 -3024 0
FLAG 3440 -3024 +
IOPIN 3440 -3024 BiDir
FLAG 2624 -2960 +
IOPIN 2624 -2960 BiDir
FLAG 3424 -2960 0
FLAG 2640 -2736 0
FLAG 2704 -2832 0
SYMBOL ind2 2816 -2928 R180
WINDOW 0 36 80 Invisible 2
WINDOW 3 -2 31 Left 2
SYMATTR InstName L2
SYMATTR Value 96m65
SYMATTR SpiceLine Rser=.6 Cpar=95p
SYMATTR Type ind
SYMBOL diode 2800 -3040 R270
WINDOW 0 32 32 Invisible 2
WINDOW 3 0 32 Invisible 2
SYMATTR InstName D1
SYMATTR Value 1N4148
SYMBOL ind2 2688 -2944 M180
WINDOW 0 36 80 Invisible 2
WINDOW 3 3 30 Left 2
SYMATTR InstName L3
SYMATTR Value 45µ
SYMATTR SpiceLine Rser=.0003
SYMATTR Type ind
SYMBOL Misc\\EuropeanCap 3440 -3024 M0
WINDOW 3 -32 57 Left 2
WINDOW 0 24 4 Invisible 2
SYMATTR Value 6600µ
SYMATTR InstName C3
SYMATTR SpiceLine Rser=.005
SYMBOL sw 2976 -3008 M270
WINDOW 0 71 33 Invisible 2
SYMATTR InstName S3
SYMATTR SpiceModel SW2
SYMATTR Value ""
SYMBOL voltage 2976 -2928 R0
WINDOW 123 0 0 Left 2
WINDOW 0 24 16 Invisible 2
WINDOW 3 -14 57 Left 2
SYMATTR InstName V8
SYMATTR Value 1712
SYMATTR SpiceLine Rser=0
SYMBOL voltage 2864 -2928 M90
WINDOW 0 32 8 Invisible 2
WINDOW 3 61 -91 Invisible 2
WINDOW 123 0 0 Left 2
SYMATTR InstName V9
SYMATTR Value PULSE(0 400 0 0 0 20u 1 1)
SYMATTR SpiceLine Rser=0
SYMBOL voltage 3040 -2928 R0
WINDOW 0 32 8 Invisible 2
WINDOW 3 64 -82 Invisible 2
WINDOW 123 0 0 Left 2
SYMATTR InstName V10
SYMATTR Value PULSE(0 20 100u 0 0 2u 500u)
SYMATTR SpiceLine Rser=0
SYMBOL IR2110 2512 -2848 R0
WINDOW 0 16 -157 Center 2
WINDOW 3 14 -130 Center 2
SYMATTR InstName U1
SYMBOL voltage 3344 -2864 R0
WINDOW 39 0 0 Left 2
WINDOW 0 24 16 Invisible 2
WINDOW 3 24 96 Invisible 2
SYMATTR InstName V7
SYMATTR Value 5
SYMBOL nmos 2656 -2784 R0
WINDOW 0 -21 44 Invisible 2
WINDOW 3 -12 -5 Invisible 2
SYMATTR InstName M1
SYMATTR Value IRF740
SYMBOL voltage 3296 -2928 R0
WINDOW 0 24 16 Invisible 2
WINDOW 3 -10 56 Left 2
SYMATTR InstName V2
SYMATTR Value 15
SYMATTR SpiceLine Rser=0
SYMBOL diode 2800 -2896 R270
WINDOW 0 32 32 Invisible 2
WINDOW 3 0 32 Invisible 2
SYMATTR InstName D2
SYMATTR Value 1N4148
SYMBOL diode 2736 -3040 R270
WINDOW 0 32 32 Invisible 2
WINDOW 3 0 32 Invisible 2
SYMATTR InstName D3
SYMATTR Value 1N4148
SYMBOL diode 2736 -2896 R270
WINDOW 0 32 32 Invisible 2
WINDOW 3 0 32 Invisible 2
SYMATTR InstName D4
SYMATTR Value 1N4148
SYMBOL voltage 3408 -2912 R0
WINDOW 0 24 16 Invisible 2
WINDOW 3 -10 56 Left 2
WINDOW 123 0 0 Left 2
SYMATTR InstName V3
SYMATTR Value 2.5
SYMATTR SpiceLine Rser=0
SYMBOL CD4000\\CD4011B 2784 -3072 R180
WINDOW 0 -16 16 Invisible 2
WINDOW 3 -26 -6 Invisible 2
SYMATTR InstName U4
SYMBOL CD4000\\CD4011B 2512 -3072 R180
WINDOW 0 -16 16 Invisible 2
WINDOW 3 -32 113 Invisible 2
SYMATTR InstName U5
SYMBOL nmos 3072 -2928 R0
WINDOW 0 -21 44 Invisible 2
WINDOW 3 -12 -5 Invisible 2
SYMATTR InstName M2
SYMATTR Value IRF740
SYMBOL ind2 2992 -3056 R0
WINDOW 0 36 40 Invisible 2
SYMATTR InstName L4
SYMATTR Value 250µH
SYMATTR Type ind
SYMATTR SpiceLine Rser=.17 Cpar=100p
SYMBOL ind2 3504 -2832 R0
SYMATTR InstName L1
SYMATTR Value .1µH
SYMATTR Type ind
SYMBOL Misc\\EuropeanResistor 3488 -2832 M0
SYMATTR InstName R2
SYMATTR Value 500
SYMBOL Misc\\EuropeanResistor 3104 -2944 M180
WINDOW 0 31 76 Left 2
WINDOW 3 31 40 Left 2
SYMATTR InstName R3
SYMATTR Value 400
SYMBOL Misc\\EuropeanResistor 3232 -2944 M180
WINDOW 0 31 76 Left 2
WINDOW 3 31 40 Left 2
SYMATTR InstName R4
SYMATTR Value 7.95Meg
SYMBOL Misc\\EuropeanResistor 3264 -2944 M0
SYMATTR InstName R7
SYMATTR Value 50k
SYMBOL Opamps\\opamp2 3520 -2992 R0
WINDOW 3 -32 63 Left 2
WINDOW 0 16 32 Invisible 2
SYMATTR Value lm318
SYMATTR InstName U2
SYMBOL voltage 2832 -3104 M90
WINDOW 0 32 8 Invisible 2
WINDOW 3 64 -82 Invisible 2
WINDOW 123 0 0 Left 2
SYMATTR InstName V4
SYMATTR Value PULSE(0 5 0 5n 5n 200n 2u)
SYMATTR SpiceLine Rser=0
SYMBOL zener 3104 -2768 M90
WINDOW 0 -4 32 Invisible 2
WINDOW 3 36 32 Invisible 2
SYMATTR InstName D27
SYMATTR Value EDZV24B
SYMATTR Description Diode
SYMATTR Type diode
SYMBOL zener 2976 -2720 R90
WINDOW 0 -4 32 Invisible 2
WINDOW 3 36 32 Invisible 2
SYMATTR InstName D29
SYMATTR Value EDZV24B
SYMATTR Description Diode
SYMATTR Type diode
SYMBOL zener 2912 -2768 M90
WINDOW 0 -4 32 Invisible 2
WINDOW 3 36 32 Invisible 2
SYMATTR InstName D31
SYMATTR Value EDZV24B
SYMATTR Description Diode
SYMATTR Type diode
SYMBOL zener 2848 -2768 M90
WINDOW 0 -4 32 Invisible 2
WINDOW 3 36 32 Invisible 2
SYMATTR InstName D34
SYMATTR Value EDZV24B
SYMATTR Description Diode
SYMATTR Type diode
SYMBOL zener 2912 -2720 R90
WINDOW 0 -4 32 Invisible 2
WINDOW 3 36 32 Invisible 2
SYMATTR InstName D36
SYMATTR Value EDZV24B
SYMATTR Description Diode
SYMATTR Type diode
SYMBOL zener 3040 -2768 M90
WINDOW 0 -4 32 Invisible 2
WINDOW 3 36 32 Invisible 2
SYMATTR InstName D38
SYMATTR Value EDZV24B
SYMATTR Description Diode
SYMATTR Type diode
SYMBOL zener 3104 -2720 R90
WINDOW 0 -4 32 Invisible 2
WINDOW 3 36 32 Invisible 2
SYMATTR InstName D6
SYMATTR Value EDZV24B
SYMATTR Description Diode
SYMATTR Type diode
SYMBOL zener 3296 -2720 R90
WINDOW 0 -4 32 Invisible 2
WINDOW 3 36 32 Invisible 2
SYMATTR InstName D7
SYMATTR Value EDZV24B
SYMATTR Description Diode
SYMATTR Type diode
SYMBOL zener 2976 -2768 M90
WINDOW 0 -4 32 Invisible 2
WINDOW 3 36 32 Invisible 2
SYMATTR InstName D8
SYMATTR Value EDZV24B
SYMATTR Description Diode
SYMATTR Type diode
SYMBOL zener 3040 -2720 R90
WINDOW 0 -4 32 Invisible 2
WINDOW 3 36 32 Invisible 2
SYMATTR InstName D9
SYMATTR Value EDZV24B
SYMATTR Description Diode
SYMATTR Type diode
SYMBOL zener 3168 -2976 M180
WINDOW 0 24 64 Invisible 2
WINDOW 3 24 0 Invisible 2
SYMATTR InstName D11
SYMATTR Value EDZV24B
SYMATTR Description Diode
SYMATTR Type diode
SYMBOL zener 3232 -2720 R90
WINDOW 0 -4 32 Invisible 2
WINDOW 3 36 32 Invisible 2
SYMATTR InstName D12
SYMATTR Value EDZV24B
SYMATTR Description Diode
SYMATTR Type diode
SYMBOL zener 3424 -2720 R90
WINDOW 0 -4 32 Invisible 2
WINDOW 3 36 32 Invisible 2
SYMATTR InstName D13
SYMATTR Value EDZV24B
SYMATTR Description Diode
SYMATTR Type diode
SYMBOL zener 3360 -2720 R90
WINDOW 0 -4 32 Invisible 2
WINDOW 3 36 32 Invisible 2
SYMATTR InstName D14
SYMATTR Value EDZV24B
SYMATTR Description Diode
SYMATTR Type diode
SYMBOL zener 3168 -2720 R90
WINDOW 0 -4 32 Invisible 2
WINDOW 3 36 32 Invisible 2
SYMATTR InstName D15
SYMATTR Value EDZV24B
SYMATTR Description Diode
SYMATTR Type diode
SYMBOL zener 3168 -2912 M180
WINDOW 0 24 64 Invisible 2
WINDOW 3 24 0 Invisible 2
SYMATTR InstName D5
SYMATTR Value EDZV24B
SYMATTR Description Diode
SYMATTR Type diode
SYMBOL zener 3168 -2848 M180
WINDOW 0 24 64 Invisible 2
WINDOW 3 24 0 Invisible 2
SYMATTR InstName D10
SYMATTR Value EDZV24B
SYMATTR Description Diode
SYMATTR Type diode
SYMBOL zener 3168 -2784 M180
WINDOW 0 24 64 Invisible 2
WINDOW 3 24 0 Invisible 2
SYMATTR InstName D16
SYMATTR Value EDZV24B
SYMATTR Description Diode
SYMATTR Type diode
SYMBOL voltage 3424 -3024 R90
WINDOW 0 -32 56 VBottom 2
WINDOW 3 32 56 VTop 2
WINDOW 123 0 0 Left 2
SYMATTR InstName V5
SYMATTR Value 15
SYMATTR SpiceLine Rser=.5
SYMBOL Misc\\EuropeanCap 2800 -2880 R0
WINDOW 0 24 4 Invisible 2
WINDOW 3 -30 33 Left 2
SYMATTR InstName C5
SYMATTR Value 1µ
SYMATTR SpiceLine Rser=.005
SYMBOL Misc\\EuropeanCap 2848 -2880 R0
WINDOW 0 24 4 Invisible 2
WINDOW 3 -1 53 Left 2
SYMATTR InstName C4
SYMATTR Value 135µ
SYMATTR SpiceLine Rser=.7
SYMBOL nmos 2656 -2928 R0
WINDOW 0 -21 44 Invisible 2
WINDOW 3 -12 -5 Invisible 2
SYMATTR InstName M4
SYMATTR Value IRF740
SYMBOL Misc\\EuropeanCap 2896 -2880 R0
WINDOW 0 24 4 Invisible 2
WINDOW 3 -5 52 Left 2
SYMATTR InstName C1
SYMATTR Value 1µ
SYMATTR SpiceLine Rser=.005
TEXT 2712 -2800 Left 2 !.tran 50m
TEXT 2664 -3072 Left 2 !K3 L3 L2 1.0
TEXT 2464 -2896 Left 2 !.inc ir2110.sub
TEXT 2712 -2736 Left 2 !.lib LM318.sub
TEXT 2712 -2784 Left 2 !.model SW2 SW(Ron=1n Roff=1000G Vt=0.5 Vh=.4)
TEXT 2712 -2768 Left 2 !.lib CD4066.sub
TEXT 2712 -2720 Left 2 !.inc CD4000.lib
TEXT 2712 -2704 Left 2 !.inc cd4066.sub
TEXT 2712 -2752 Left 2 !.lib NE5532.sub
TEXT 3000 -3072 Left 2 !K2 L1 L4 1.0
