Version 4
SHEET 1 6068 1612
WIRE 256 -2960 144 -2960
WIRE 272 -2960 256 -2960
WIRE 144 -2944 144 -2960
WIRE 256 -2944 256 -2960
WIRE 144 -2848 144 -2880
WIRE 256 -2848 256 -2864
WIRE 256 -2848 144 -2848
WIRE 304 -2848 256 -2848
WIRE 256 -2832 256 -2848
WIRE 304 -2832 304 -2848
WIRE 144 -2816 144 -2848
WIRE -288 -2800 -288 -2864
WIRE 144 -2736 144 -2752
WIRE 256 -2736 256 -2752
WIRE 256 -2736 144 -2736
WIRE 288 -2736 256 -2736
WIRE 144 -2720 144 -2736
WIRE 256 -2720 256 -2736
WIRE -288 -2640 -288 -2720
WIRE 144 -2624 144 -2656
WIRE 256 -2624 256 -2640
WIRE 256 -2624 144 -2624
WIRE 272 -2624 256 -2624
WIRE 672 -2496 368 -2496
WIRE 784 -2496 672 -2496
WIRE 368 -2464 368 -2496
WIRE 976 -2416 880 -2416
WIRE 1088 -2416 1040 -2416
WIRE 1168 -2416 1088 -2416
WIRE 672 -2400 672 -2496
WIRE 1088 -2400 1088 -2416
WIRE -288 -2384 -336 -2384
WIRE -176 -2384 -208 -2384
WIRE 240 -2384 32 -2384
WIRE 80 -2352 32 -2352
WIRE 176 -2352 80 -2352
WIRE 80 -2336 80 -2352
WIRE 176 -2336 176 -2352
WIRE 880 -2336 880 -2416
WIRE 976 -2336 880 -2336
WIRE 1088 -2336 1040 -2336
WIRE -288 -2304 -336 -2304
WIRE -208 -2304 -176 -2352
WIRE 880 -2304 880 -2336
WIRE 368 -2272 368 -2368
WIRE 400 -2272 368 -2272
WIRE 528 -2272 480 -2272
WIRE 672 -2272 672 -2336
WIRE 672 -2272 608 -2272
WIRE 80 -2256 80 -2272
WIRE 80 -2256 32 -2256
WIRE 368 -2256 368 -2272
WIRE 368 -2256 80 -2256
WIRE 1088 -2256 1088 -2336
WIRE 1168 -2256 1168 -2416
WIRE -240 -2224 -272 -2224
WIRE -176 -2224 -240 -2224
WIRE 80 -2224 32 -2224
WIRE 176 -2224 176 -2272
WIRE 176 -2224 80 -2224
WIRE 192 -2224 176 -2224
WIRE 80 -2208 80 -2224
WIRE -240 -2192 -240 -2224
WIRE 368 -2176 368 -2256
WIRE 672 -2176 672 -2272
WIRE 880 -2160 880 -2224
WIRE 976 -2160 880 -2160
WIRE 1088 -2160 1088 -2256
WIRE 1088 -2160 1040 -2160
WIRE 1088 -2144 1088 -2160
WIRE 80 -2128 80 -2144
WIRE 80 -2128 32 -2128
WIRE -240 -2096 -240 -2128
WIRE -176 -2096 -240 -2096
WIRE 224 -2096 32 -2096
WIRE 320 -2096 304 -2096
WIRE 880 -2080 880 -2160
WIRE 976 -2080 880 -2080
WIRE 1168 -2080 1168 -2256
WIRE 1168 -2080 1040 -2080
WIRE 80 -2048 80 -2128
WIRE 368 -2048 368 -2080
WIRE 368 -2048 80 -2048
WIRE 672 -2048 672 -2112
WIRE 672 -2048 368 -2048
WIRE -240 -2016 -240 -2096
WIRE 368 -2016 368 -2048
FLAG 288 -2736 -
IOPIN 288 -2736 BiDir
FLAG 272 -2960 +
IOPIN 272 -2960 BiDir
FLAG 304 -2832 0
FLAG 272 -2624 VL+
IOPIN 272 -2624 BiDir
FLAG 368 -2016 0
FLAG 192 -2224 VCC
FLAG -288 -2640 0
FLAG -288 -2864 VCC
FLAG -240 -2016 0
FLAG -336 -2304 0
FLAG -336 -2384 0
FLAG -272 -2224 +
IOPIN -272 -2224 BiDir
FLAG 1088 -2144 0
FLAG 784 -2496 +
IOPIN 784 -2496 BiDir
SYMBOL voltage 256 -2848 M0
WINDOW 123 0 0 Left 2
WINDOW 39 -63 34 Left 2
WINDOW 0 -53 60 Left 2
WINDOW 3 -15 62 Left 2
SYMATTR SpiceLine Rser=0
SYMATTR InstName V2
SYMATTR Value 15
SYMBOL voltage 256 -2960 M0
WINDOW 123 0 0 Left 2
WINDOW 39 -61 27 Left 2
WINDOW 0 -54 49 Left 2
WINDOW 3 -9 55 Left 2
SYMATTR SpiceLine Rser=0
SYMATTR InstName V4
SYMATTR Value 15
SYMBOL voltage 256 -2624 M180
WINDOW 123 0 0 Left 2
WINDOW 39 13 78 Left 2
WINDOW 0 37 57 Left 2
WINDOW 3 -3 60 Left 2
SYMATTR SpiceLine Rser=0
SYMATTR InstName V3
SYMATTR Value 5
SYMBOL nmos 320 -2176 R0
WINDOW 0 -21 44 Left 2
WINDOW 3 -12 -5 Left 2
SYMATTR InstName M3
SYMATTR Value IRF740
SYMBOL nmos 320 -2464 R0
WINDOW 0 -21 44 Left 2
WINDOW 3 -12 -5 Left 2
SYMATTR InstName M1
SYMATTR Value IRF740
SYMBOL Misc\\EuropeanCap 656 -2400 R0
SYMATTR InstName C1
SYMATTR Value .47µ
SYMATTR SpiceLine V=400 Irms=1 Lser=0
SYMBOL Misc\\EuropeanCap 656 -2176 R0
SYMATTR InstName C2
SYMATTR Value .47µ
SYMATTR SpiceLine V=400 Irms=1 Lser=0
SYMBOL res 336 -2400 R90
WINDOW 0 0 56 VBottom 2
WINDOW 3 32 56 VTop 2
SYMATTR InstName R6
SYMATTR Value 33
SYMBOL res 320 -2112 R90
WINDOW 0 0 56 VBottom 2
WINDOW 3 32 56 VTop 2
SYMATTR InstName R7
SYMATTR Value 33
SYMBOL cap 64 -2336 R0
WINDOW 0 28 8 Left 2
WINDOW 3 24 53 Left 2
SYMATTR InstName C3
SYMATTR Value 2.2µF
SYMBOL cap 64 -2208 R0
WINDOW 3 28 57 Left 2
SYMATTR Value 2.2µF
SYMATTR InstName C4
SYMBOL schottky 192 -2272 R180
WINDOW 0 -29 68 Left 2
WINDOW 3 -106 -4 Left 2
SYMATTR InstName D2
SYMATTR Value MURS120
SYMATTR Description Diode
SYMATTR Type diode
SYMBOL cap -256 -2192 R0
SYMATTR InstName C5
SYMATTR Value 10µf
SYMBOL IR2110 -80 -2240 R0
WINDOW 0 16 -157 Center 2
SYMATTR InstName U4
SYMBOL voltage -288 -2816 R0
WINDOW 123 0 0 Left 2
WINDOW 39 0 0 Left 2
SYMATTR InstName V9
SYMATTR Value 12
SYMBOL voltage -192 -2384 R90
WINDOW 3 -184 -4 Left 2
WINDOW 123 0 0 Left 2
WINDOW 39 0 0 Left 2
SYMATTR Value PULSE(0 12 2.9u 10n 10n 2.8u 6u)
SYMATTR InstName V10
SYMBOL ind2 496 -2288 R90
WINDOW 0 4 56 VBottom 2
WINDOW 3 32 56 VTop 2
SYMATTR InstName L3
SYMATTR Value .5µH
SYMATTR SpiceLine Rser=.4 Cpar=20p
SYMATTR Type ind
SYMBOL ind2 624 -2288 R90
WINDOW 0 4 56 VBottom 2
WINDOW 3 32 56 VTop 2
SYMATTR InstName L4
SYMATTR Value .5µH
SYMATTR SpiceLine Rser=.4 Cpar=20p
SYMATTR Type ind
SYMBOL ind2 896 -2208 R180
WINDOW 0 36 80 Left 2
WINDOW 3 36 40 Left 2
SYMATTR InstName L5
SYMATTR Value 100µH
SYMATTR SpiceLine Rser=.4 Cpar=20p
SYMATTR Type ind
SYMBOL diode 1040 -2144 M270
WINDOW 0 32 32 VTop 2
WINDOW 3 0 32 VBottom 2
SYMATTR InstName D4
SYMATTR Value 1SR154-400
SYMBOL diode 1040 -2320 M270
WINDOW 0 32 32 VTop 2
WINDOW 3 0 32 VBottom 2
SYMATTR InstName D1
SYMATTR Value 1SR154-400
SYMBOL diode 976 -2400 R270
WINDOW 0 32 32 VTop 2
WINDOW 3 0 32 VBottom 2
SYMATTR InstName D3
SYMATTR Value 1SR154-400
SYMBOL diode 976 -2064 R270
WINDOW 0 32 32 VTop 2
WINDOW 3 0 32 VBottom 2
SYMATTR InstName D5
SYMATTR Value 1SR154-400
SYMBOL Misc\\EuropeanCap 1072 -2400 R0
SYMATTR InstName C6
SYMATTR Value 4700µF
SYMATTR SpiceLine V=400 Irms=1 Rser=.32 Lser=0
SYMBOL Misc\\EuropeanResistor 1072 -2272 M90
WINDOW 0 5 56 VBottom 2
WINDOW 3 27 56 VTop 2
SYMATTR InstName R2
SYMATTR Value 100
SYMBOL voltage -192 -2304 R90
WINDOW 3 -77 112 Left 2
WINDOW 123 0 0 Left 2
WINDOW 39 0 0 Left 2
SYMATTR Value PULSE(0 12 0 10n 10n 2.8u 6u)
SYMATTR InstName V1
TEXT 152 -2584 Left 2 !.lib NE5532.sub
TEXT 144 -2552 Left 2 !.lib LM318.sub
TEXT 376 -2552 Left 2 !K1 L4 L5 1.0
TEXT -328 -2568 Left 2 !.param period                              = 2e-3\n.param digital_trantime                 = 1e-9\n.param mosfet_gate_pulse_time  = 1e-6\n.param shootthru_prevent_delay =1e-7\n.param mosfet_gate_energized_time=mosfet_gate_pulse_time+shootthru_prevent_delay*2
TEXT -184 -2648 Left 2 !.lib NE5532.sub
TEXT -192 -2616 Left 2 !.lib LM318.sub
TEXT -176 -2728 Left 2 !.tran 0 200u 0 10n startup
TEXT -176 -2760 Left 2 !.include ir2110.sub
TEXT -176 -2696 Left 2 !.options reltol=1e-2
