Version 4
SHEET 1 6068 1612
WIRE -976 -2560 -992 -2560
WIRE -736 -2560 -752 -2560
WIRE -416 -2528 -416 -2560
WIRE -240 -2528 -240 -2560
WIRE -976 -2448 -992 -2448
WIRE -608 -2448 -768 -2448
WIRE -464 -2448 -528 -2448
WIRE -128 -2448 -192 -2448
WIRE 112 -2448 -48 -2448
WIRE 336 -2448 320 -2448
WIRE -976 -2416 -992 -2416
WIRE -736 -2416 -768 -2416
WIRE -656 -2416 -736 -2416
WIRE 80 -2416 0 -2416
WIRE 112 -2416 80 -2416
WIRE 336 -2416 320 -2416
WIRE -736 -2400 -736 -2416
WIRE -656 -2400 -656 -2416
WIRE -416 -2400 -416 -2432
WIRE -368 -2400 -416 -2400
WIRE -240 -2400 -240 -2432
WIRE -240 -2400 -288 -2400
WIRE 0 -2400 0 -2416
WIRE 80 -2400 80 -2416
WIRE -736 -2320 -736 -2336
WIRE -736 -2320 -768 -2320
WIRE -416 -2320 -416 -2400
WIRE -416 -2320 -736 -2320
WIRE -240 -2320 -240 -2400
WIRE 80 -2320 80 -2336
WIRE 80 -2320 -240 -2320
WIRE 112 -2320 80 -2320
WIRE -1008 -2288 -1024 -2288
WIRE -976 -2288 -1008 -2288
WIRE -736 -2288 -768 -2288
WIRE -656 -2288 -656 -2336
WIRE -656 -2288 -736 -2288
WIRE -640 -2288 -656 -2288
WIRE 0 -2288 0 -2336
WIRE 0 -2288 -16 -2288
WIRE 80 -2288 0 -2288
WIRE 112 -2288 80 -2288
WIRE 352 -2288 320 -2288
WIRE 368 -2288 352 -2288
WIRE -736 -2272 -736 -2288
WIRE 80 -2272 80 -2288
WIRE -1008 -2256 -1008 -2288
WIRE 352 -2256 352 -2288
WIRE -736 -2192 -736 -2208
WIRE -736 -2192 -768 -2192
WIRE 80 -2192 80 -2208
WIRE 112 -2192 80 -2192
WIRE -1008 -2160 -1008 -2192
WIRE -976 -2160 -1008 -2160
WIRE -736 -2160 -736 -2192
WIRE 80 -2160 80 -2192
WIRE 352 -2160 352 -2192
WIRE 352 -2160 320 -2160
WIRE -1008 -2144 -1008 -2160
WIRE -464 -2144 -464 -2176
WIRE -192 -2144 -192 -2176
WIRE 352 -2144 352 -2160
WIRE -384 -2096 -384 -2112
WIRE -320 -2096 -320 -2112
WIRE -320 -2096 -384 -2096
WIRE -976 -2064 -992 -2064
WIRE -608 -2064 -768 -2064
WIRE -512 -2064 -528 -2064
WIRE -128 -2064 -144 -2064
WIRE 112 -2064 -48 -2064
WIRE 336 -2064 320 -2064
WIRE -976 -2032 -992 -2032
WIRE -736 -2032 -768 -2032
WIRE -656 -2032 -736 -2032
WIRE -464 -2032 -464 -2048
WIRE -416 -2032 -416 -2320
WIRE -416 -2032 -464 -2032
WIRE -240 -2032 -240 -2320
WIRE -192 -2032 -192 -2048
WIRE -192 -2032 -240 -2032
WIRE 80 -2032 0 -2032
WIRE 112 -2032 80 -2032
WIRE 336 -2032 320 -2032
WIRE -736 -2016 -736 -2032
WIRE -656 -2016 -656 -2032
WIRE 0 -2016 0 -2032
WIRE 80 -2016 80 -2032
WIRE -320 -2000 -320 -2016
WIRE -736 -1936 -736 -1952
WIRE -736 -1936 -768 -1936
WIRE -464 -1936 -464 -2032
WIRE -464 -1936 -736 -1936
WIRE -192 -1936 -192 -2032
WIRE 80 -1936 80 -1952
WIRE 80 -1936 -192 -1936
WIRE 112 -1936 80 -1936
WIRE -1008 -1904 -1024 -1904
WIRE -976 -1904 -1008 -1904
WIRE -736 -1904 -768 -1904
WIRE -656 -1904 -656 -1952
WIRE -656 -1904 -736 -1904
WIRE -640 -1904 -656 -1904
WIRE 0 -1904 0 -1952
WIRE 0 -1904 -16 -1904
WIRE 80 -1904 0 -1904
WIRE 112 -1904 80 -1904
WIRE 352 -1904 320 -1904
WIRE 368 -1904 352 -1904
WIRE -736 -1888 -736 -1904
WIRE 80 -1888 80 -1904
WIRE -1008 -1872 -1008 -1904
WIRE 352 -1872 352 -1904
WIRE -464 -1856 -464 -1936
WIRE -192 -1856 -192 -1936
WIRE -736 -1808 -736 -1824
WIRE -736 -1808 -768 -1808
WIRE 80 -1808 80 -1824
WIRE 112 -1808 80 -1808
WIRE -736 -1792 -736 -1808
WIRE 80 -1792 80 -1808
WIRE -1008 -1776 -1008 -1808
WIRE -976 -1776 -1008 -1776
WIRE -608 -1776 -768 -1776
WIRE -512 -1776 -528 -1776
WIRE -128 -1776 -144 -1776
WIRE 112 -1776 -48 -1776
WIRE 352 -1776 352 -1808
WIRE 352 -1776 320 -1776
WIRE -1008 -1760 -1008 -1776
WIRE 352 -1760 352 -1776
WIRE -464 -1744 -464 -1760
WIRE -192 -1744 -192 -1760
FLAG -320 -2112 +15
IOPIN -320 -2112 BiDir
FLAG -320 -2000 0
FLAG -384 -2112 VCC_mosfet_drive
IOPIN -384 -2112 BiDir
FLAG -1056 -2560 0
FLAG -384 -1888 0
FLAG -384 -1968 VDD_logic
IOPIN -384 -1968 BiDir
FLAG -736 -2160 0
FLAG -1008 -2144 0
FLAG 352 -2144 0
FLAG 336 -2448 hi_voltage_right
IOPIN 336 -2448 BiDir
FLAG -640 -2288 VCC_mosfet_drive
IOPIN -640 -2288 BiDir
FLAG 80 -2160 0
FLAG -416 -2560 +200
IOPIN -416 -2560 BiDir
FLAG 352 -1760 0
FLAG -192 -1744 0
FLAG -464 -1744 0
FLAG -736 -1792 0
FLAG 80 -1792 0
FLAG -1008 -1760 0
FLAG -320 -2288 +200
IOPIN -320 -2288 BiDir
FLAG -320 -2208 0
FLAG -240 -2560 +200
IOPIN -240 -2560 BiDir
FLAG -464 -2176 +15
IOPIN -464 -2176 BiDir
FLAG -192 -2176 +15
IOPIN -192 -2176 BiDir
FLAG -992 -2448 hi_voltage_left
IOPIN -992 -2448 BiDir
FLAG 336 -2064 lo_voltage_right
IOPIN 336 -2064 BiDir
FLAG -992 -2064 lo_voltage_left
IOPIN -992 -2064 BiDir
FLAG -992 -2032 ground_left
IOPIN -992 -2032 BiDir
FLAG 336 -2032 ground_right
IOPIN 336 -2032 BiDir
FLAG -640 -1904 VCC_mosfet_drive
IOPIN -640 -1904 BiDir
FLAG -16 -1904 VCC_mosfet_drive
IOPIN -16 -1904 BiDir
FLAG -16 -2288 VCC_mosfet_drive
IOPIN -16 -2288 BiDir
FLAG 368 -2288 VDD_logic
IOPIN 368 -2288 BiDir
FLAG 368 -1904 VDD_logic
IOPIN 368 -1904 BiDir
FLAG -1024 -1904 VDD_logic
IOPIN -1024 -1904 BiDir
FLAG -1024 -2288 VDD_logic
IOPIN -1024 -2288 BiDir
FLAG -976 -2560 hi_voltage_left
IOPIN -976 -2560 BiDir
FLAG -816 -2560 0
FLAG -736 -2560 hi_voltage_right
IOPIN -736 -2560 BiDir
SYMBOL voltage -960 -2560 M270
WINDOW 0 24 11 VLeft 2
WINDOW 3 -134 119 Invisible 2
WINDOW 123 0 0 Left 2
SYMATTR InstName 1
SYMATTR Value PULSE(0 5 {lo_delay} {TT} {TT} {on_width} {period})
SYMATTR SpiceLine Rser=0
SYMBOL voltage -320 -2112 M0
WINDOW 123 0 0 Left 2
WINDOW 39 -61 27 Left 2
WINDOW 0 -54 49 Left 2
WINDOW 3 -9 55 Left 2
SYMATTR SpiceLine Rser=0
SYMATTR InstName V1
SYMATTR Value 15
SYMBOL nmos -512 -1856 R0
WINDOW 0 -21 44 Left 2
WINDOW 3 -12 -5 Left 2
SYMATTR InstName M1
SYMATTR Value IRF740
SYMBOL nmos -512 -2144 R0
WINDOW 0 -21 44 Left 2
WINDOW 3 -12 -5 Left 2
SYMATTR InstName M2
SYMATTR Value IRF740
SYMBOL Misc\\EuropeanCap -752 -2016 R0
SYMATTR InstName C2
SYMATTR Value 2µ2
SYMATTR SpiceLine V=400 Irms=1 Lser=0
SYMBOL schottky -640 -1952 R180
WINDOW 0 -29 68 Left 2
WINDOW 3 -106 -4 Left 2
SYMATTR InstName D5
SYMATTR Value MURS120
SYMATTR Description Diode
SYMATTR Type diode
SYMBOL cap -1024 -1872 R0
SYMATTR InstName C3
SYMATTR Value 10µf
SYMBOL IR2110 -880 -1920 R0
WINDOW 0 16 -157 Center 2
SYMATTR InstName U1
SYMBOL ind2 -272 -2416 R90
WINDOW 0 4 56 VBottom 2
WINDOW 3 32 56 VTop 2
SYMATTR InstName L2
SYMATTR Value 250µ
SYMATTR SpiceLine Rser=.001
SYMATTR Type ind
SYMBOL Misc\\EuropeanResistor -624 -2080 M90
WINDOW 0 5 56 VBottom 2
WINDOW 3 27 56 VTop 2
SYMATTR InstName R2
SYMATTR Value 33
SYMBOL Misc\\EuropeanResistor -624 -1792 M90
WINDOW 0 5 56 VBottom 2
WINDOW 3 27 56 VTop 2
SYMATTR InstName R3
SYMATTR Value 33
SYMBOL Misc\\EuropeanCap -752 -1888 R0
SYMATTR InstName C4
SYMATTR Value 2µ2
SYMATTR SpiceLine V=400 Irms=1 Lser=0
SYMBOL nmos -144 -1856 M0
WINDOW 0 -21 44 Left 2
WINDOW 3 -12 -5 Left 2
SYMATTR InstName M3
SYMATTR Value IRF740
SYMBOL nmos -144 -2144 M0
WINDOW 0 -21 44 Left 2
WINDOW 3 -12 -5 Left 2
SYMATTR InstName M4
SYMATTR Value IRF740
SYMBOL Misc\\EuropeanCap 96 -2016 M0
SYMATTR InstName C5
SYMATTR Value 2µ2
SYMATTR SpiceLine V=400 Irms=1 Lser=0
SYMBOL schottky -16 -1952 M180
WINDOW 0 -29 68 Left 2
WINDOW 3 -106 -4 Left 2
SYMATTR InstName D6
SYMATTR Value MURS120
SYMATTR Description Diode
SYMATTR Type diode
SYMBOL cap 368 -1872 M0
SYMATTR InstName C6
SYMATTR Value 10µf
SYMBOL IR2110 224 -1920 M0
WINDOW 0 16 -157 Center 2
SYMATTR InstName U2
SYMBOL Misc\\EuropeanResistor -32 -2080 R90
WINDOW 0 5 56 VBottom 2
WINDOW 3 27 56 VTop 2
SYMATTR InstName R4
SYMATTR Value 33
SYMBOL Misc\\EuropeanResistor -32 -1792 R90
WINDOW 0 5 56 VBottom 2
WINDOW 3 27 56 VTop 2
SYMATTR InstName R5
SYMATTR Value 33
SYMBOL Misc\\EuropeanCap 96 -1888 M0
SYMATTR InstName C7
SYMATTR Value 2µ2
SYMATTR SpiceLine V=400 Irms=1 Lser=0
SYMBOL voltage -384 -1984 R0
WINDOW 123 0 0 Left 2
WINDOW 39 0 0 Left 2
SYMATTR InstName V2
SYMATTR Value 5
SYMBOL Misc\\EuropeanCap -752 -2400 R0
SYMATTR InstName C8
SYMATTR Value 2µ2
SYMATTR SpiceLine V=400 Irms=1 Lser=0
SYMBOL schottky -640 -2336 R180
WINDOW 0 -29 68 Left 2
WINDOW 3 -106 -4 Left 2
SYMATTR InstName D7
SYMATTR Value MURS120
SYMATTR Description Diode
SYMATTR Type diode
SYMBOL cap -1024 -2256 R0
SYMATTR InstName C9
SYMATTR Value 10µf
SYMBOL IR2110 -880 -2304 R0
WINDOW 0 16 -157 Center 2
SYMATTR InstName U3
SYMBOL Misc\\EuropeanResistor -624 -2464 M90
WINDOW 0 5 56 VBottom 2
WINDOW 3 27 56 VTop 2
SYMATTR InstName R6
SYMATTR Value 33
SYMBOL Misc\\EuropeanCap -752 -2272 R0
SYMATTR InstName C10
SYMATTR Value 2µ2
SYMATTR SpiceLine V=400 Irms=1 Lser=0
SYMBOL Misc\\EuropeanCap 96 -2400 M0
SYMATTR InstName C11
SYMATTR Value 2µ2
SYMATTR SpiceLine V=400 Irms=1 Lser=0
SYMBOL schottky -16 -2336 M180
WINDOW 0 -29 68 Left 2
WINDOW 3 -106 -4 Left 2
SYMATTR InstName D8
SYMATTR Value MURS120
SYMATTR Description Diode
SYMATTR Type diode
SYMBOL cap 368 -2256 M0
SYMATTR InstName C12
SYMATTR Value 10µf
SYMBOL IR2110 224 -2304 M0
WINDOW 0 16 -157 Center 2
SYMATTR InstName U4
SYMBOL Misc\\EuropeanResistor -32 -2464 R90
WINDOW 0 5 56 VBottom 2
WINDOW 3 27 56 VTop 2
SYMATTR InstName R8
SYMATTR Value 33
SYMBOL Misc\\EuropeanCap 96 -2272 M0
SYMATTR InstName C13
SYMATTR Value 2µ2
SYMATTR SpiceLine V=400 Irms=1 Lser=0
SYMBOL nmos -464 -2528 R0
WINDOW 0 -21 44 Left 2
WINDOW 3 -12 -5 Left 2
SYMATTR InstName M5
SYMATTR Value IRF740
SYMBOL nmos -192 -2528 M0
WINDOW 0 -21 44 Left 2
WINDOW 3 -12 -5 Left 2
SYMATTR InstName M6
SYMATTR Value IRF740
SYMBOL voltage -320 -2304 M0
WINDOW 123 0 0 Left 2
WINDOW 39 -61 27 Left 2
WINDOW 0 -54 49 Left 2
WINDOW 3 -9 55 Left 2
SYMATTR SpiceLine Rser=0
SYMATTR InstName V3
SYMATTR Value 15
SYMBOL voltage -720 -2560 M270
WINDOW 0 24 11 VLeft 2
WINDOW 3 -134 119 Invisible 2
WINDOW 123 0 0 Left 2
SYMATTR InstName V4
SYMATTR Value PULSE(0 5 {lo_delay} {TT} {TT} {on_width} {period})
SYMATTR SpiceLine Rser=0
TEXT -1384 -2608 Left 2 !.param hi_frac=0.02\n.param freq=500\n.param p= 1/freq\n.param TT=10n\n.param XO_delay =20n\n \n.param T0=0\n.param T1=p*hi_frac\n.param T2=p*0.5\n.param T3=T1+T2\n.param T4=p\n \n.param HVL_on=T0+XO\n.param HVL_Ton=T1-T0-XO*2\n \n.param LVL_on=T1+XO\n.param LVL_Ton=T2-T1-XO*2\n \n.param HVR_on=T2+XO\n.param HVR_Ton=T2-T1-XO*2\n \n.param LVR_on=T3+XO\n.param LVR_Ton=T3-T2-XO*2
TEXT -360 -1808 Left 2 !.lib NE5532.sub
TEXT -352 -1784 Left 2 !.lib LM318.sub
TEXT -360 -1832 Left 2 !.include ir2110.sub
TEXT -328 -1864 Left 2 !.tran .01
TEXT -368 -2448 Left 2 !K2 L1 L2 1.0
